<nodes>
    <!-- 起点坐标 (0,0) -->
    <node id="node_start" x="0" y="0"/>
    <!-- 终点坐标 (1000,0)，也就是一条 1000 米长的直路 -->
    <node id="node_end" x="1000" y="0"/>
</nodes>