<?xml version="1.0" encoding="UTF-8"?>

<!-- generated on 2026-05-13T15:06:23.349332+09:00 by Eclipse SUMO netedit 1.26.0
-->

<additional xmlns:xsi="http://www.w3.org/2001/XMLSchema-instance" xsi:noNamespaceSchemaLocation="http://sumo.dlr.de/xsd/additional_file.xsd">
    <!-- Shapes -->
    <poly id="po_0" type="park" color="0,128,0" fill="1" layer="0.00" shape="-699.633898,101.111864 -1502.101695,600.501695 -1500.379661,-1395.335593 -701.355932,-899.389831 -699.633898,101.111864"/>
</additional>
