<?xml version="1.0" encoding="UTF-8"?>
<additional xmlns:xsi="http://www.w3.org/2001/XMLSchema-instance"
    xsi:noNamespaceSchemaLocation="http://sumo.dlr.de/xsd/additional_file.xsd">

    <!-- CBD 内部停车区 → 生成 CBD 内部出行需求 -->
    <!-- 中央商业区 -->
    <parkingArea id="park_center" lane="E4E5_0" startPos="200" endPos="300" roadsideCapacity="50"/>
    <parkingArea id="park_center2" lane="E5E4_0" startPos="200" endPos="300" roadsideCapacity="50"/>

    <!-- 西侧入口 -->
    <parkingArea id="park_west" lane="C4C5_0" startPos="200" endPos="300" roadsideCapacity="30"/>

    <!-- 东侧入口 -->
    <parkingArea id="park_east" lane="G4G5_0" startPos="200" endPos="300" roadsideCapacity="30"/>

    <!-- 北侧 -->
    <parkingArea id="park_north" lane="E6E7_0" startPos="200" endPos="300" roadsideCapacity="30"/>

    <!-- 南侧 -->
    <parkingArea id="park_south" lane="E2E3_0" startPos="200" endPos="300" roadsideCapacity="30"/>

</additional>
