<?xml version="1.0" encoding="UTF-8"?>

<!-- generated on 2026-05-13 14:07:43.467973 by Eclipse SUMO randomTrips.py v1_26_0+0000-fa7df22d7f1
<configuration>
    <net-file value="weihai_cbd.net.xml"/>
    <route-file value="routes.rou.xml"/>
    <end value="10800.0"/>
    <period value="2.7"/>
</configuration>
-->

<!-- generated on 2026-05-13T14:07:43.336976+09:00 by Eclipse SUMO duarouter 1.26.0
<duarouterConfiguration xmlns:xsi="http://www.w3.org/2001/XMLSchema-instance" xsi:noNamespaceSchemaLocation="http://sumo.dlr.de/xsd/duarouterConfiguration.xsd">

    <input>
        <net-file value="weihai_cbd.net.xml"/>
        <route-files value="trips.trips.xml"/>
    </input>

    <output>
        <output-file value="routes.rou.xml"/>
        <alternatives-output value="NUL"/>
    </output>

    <time>
        <begin value="0"/>
        <end value="10800.0"/>
    </time>

    <report>
        <no-warnings value="true"/>
        <ignore-errors value="true"/>
        <no-step-log value="true"/>
    </report>

</duarouterConfiguration>
-->

<routes xmlns:xsi="http://www.w3.org/2001/XMLSchema-instance" xsi:noNamespaceSchemaLocation="http://sumo.dlr.de/xsd/routes_file.xsd">
    <vehicle id="0" depart="0.00">
        <route edges="E15 E20 E33 E34 -E1"/>
    </vehicle>
    <vehicle id="1" depart="2.70">
        <route edges="-E27 E13 E14 -E4 -E3 E0 E21 -E20"/>
    </vehicle>
    <vehicle id="2" depart="5.40">
        <route edges="E20 E33 E34 -E0 E22"/>
    </vehicle>
    <vehicle id="3" depart="8.10">
        <route edges="E34 -E0 E3 E4 -E14 -E13"/>
    </vehicle>
    <vehicle id="4" depart="10.80">
        <route edges="-E4 -E3 E0 -E1"/>
    </vehicle>
    <vehicle id="5" depart="13.50">
        <route edges="-E22 E7 -E8 E10 E12 E13"/>
    </vehicle>
    <vehicle id="6" depart="16.20">
        <route edges="-E1 -E2"/>
    </vehicle>
    <vehicle id="7" depart="18.90">
        <route edges="E16 E18 E19 E6 E1 -E0 E7 E15"/>
    </vehicle>
    <vehicle id="8" depart="21.60">
        <route edges="-E22 E3 E4 -E14 -E13 E16 E18"/>
    </vehicle>
    <vehicle id="9" depart="24.30">
        <route edges="-E14 -E13"/>
    </vehicle>
    <vehicle id="10" depart="27.00">
        <route edges="E1 -E0 E3 E4 -E14 -E13 -E12 -E10 E8"/>
    </vehicle>
    <vehicle id="11" depart="29.70">
        <route edges="-E35 E3 E4 -E14 -E13 E16"/>
    </vehicle>
    <vehicle id="12" depart="32.40">
        <route edges="E3 E2"/>
    </vehicle>
    <vehicle id="13" depart="35.10">
        <route edges="E19 -E5 -E14 -E13 -E12 -E10"/>
    </vehicle>
    <vehicle id="14" depart="37.80">
        <route edges="-E13 -E12 -E10 E8 E15 E20 E33 -E23 -E22"/>
    </vehicle>
    <vehicle id="15" depart="40.50">
        <route edges="E15 -E17 -E16 E13 E14 -E4"/>
    </vehicle>
    <vehicle id="16" depart="43.20">
        <route edges="E16 E18 E19"/>
    </vehicle>
    <vehicle id="17" depart="45.90">
        <route edges="-E19 -E18 -E16 E27"/>
    </vehicle>
    <vehicle id="18" depart="48.60">
        <route edges="-E19 -E18 -E16 E13 E14 -E4 E2 -E6 -E5"/>
    </vehicle>
    <vehicle id="19" depart="51.30">
        <route edges="E8 E15 E20"/>
    </vehicle>
    <vehicle id="20" depart="54.00">
        <route edges="E10 E12 E13 E14 -E4 -E3 E22 E23"/>
    </vehicle>
    <vehicle id="21" depart="56.70">
        <route edges="E30"/>
    </vehicle>
    <vehicle id="22" depart="59.40">
        <route edges="-E23 -E22 E0 -E1"/>
    </vehicle>
    <vehicle id="23" depart="62.10">
        <route edges="-E22 E3 E4 E5 E6"/>
    </vehicle>
    <vehicle id="24" depart="64.80">
        <route edges="E16 E18 E19 -E5 -E4 E2 -E6"/>
    </vehicle>
    <vehicle id="25" depart="67.50">
        <route edges="E12 E13 E14 -E4 -E3 E35 E37"/>
    </vehicle>
    <vehicle id="26" depart="70.20">
        <route edges="-E36 -E35 E0 E21 -E20"/>
    </vehicle>
    <vehicle id="27" depart="72.90">
        <route edges="E8 E15 -E17 -E16 E13"/>
    </vehicle>
    <vehicle id="28" depart="75.60">
        <route edges="-E14 -E13 -E12 -E10"/>
    </vehicle>
    <vehicle id="29" depart="78.30">
        <route edges="-E15 -E7 E3 E2"/>
    </vehicle>
    <vehicle id="30" depart="81.00">
        <route edges="-E12 -E10 E8 -E7 E0 -E1 -E6 -E5"/>
    </vehicle>
    <vehicle id="31" depart="83.70">
        <route edges="E8 E15 -E17 -E16 E13 E14"/>
    </vehicle>
    <vehicle id="32" depart="86.40">
        <route edges="E7 -E8 E10 E12 E13 E14 -E4 -E3 E35"/>
    </vehicle>
    <vehicle id="33" depart="89.10">
        <route edges="E18 E19 E6 E1 -E0 E7 E15"/>
    </vehicle>
    <vehicle id="34" depart="91.80">
        <route edges="-E15 -E8"/>
    </vehicle>
    <vehicle id="35" depart="94.50">
        <route edges="-E6 -E5 -E4 -E3 E7"/>
    </vehicle>
    <vehicle id="36" depart="97.20">
        <route edges="-E9 E10 E12 E13 E14 E5 -E19"/>
    </vehicle>
    <vehicle id="37" depart="99.90">
        <route edges="E35"/>
    </vehicle>
    <vehicle id="38" depart="102.60">
        <route edges="E13 E14 -E4 -E3 E7 E15 -E17"/>
    </vehicle>
    <vehicle id="39" depart="105.30">
        <route edges="E22 E23 E34 -E0 E7 E15"/>
    </vehicle>
    <vehicle id="40" depart="108.00">
        <route edges="E23 E34 -E0 E7 -E8 E10 E12 E13 E14"/>
    </vehicle>
    <vehicle id="41" depart="110.70">
        <route edges="-E1 -E2 E4 E5"/>
    </vehicle>
    <vehicle id="42" depart="113.40">
        <route edges="E33"/>
    </vehicle>
    <vehicle id="43" depart="116.10">
        <route edges="-E3 E7 -E8 E10 -E11"/>
    </vehicle>
    <vehicle id="44" depart="118.80">
        <route edges="E33 -E23 -E22 E3 E4 E5 E6"/>
    </vehicle>
    <vehicle id="45" depart="121.50">
        <route edges="-E14 -E13 E16 E17 -E15 -E8 E10 E12"/>
    </vehicle>
    <vehicle id="46" depart="124.20">
        <route edges="-E13 -E12 -E10 E8 -E7 E3"/>
    </vehicle>
    <vehicle id="47" depart="126.90">
        <route edges="E22 E23 E34 -E1 -E2 -E3 E0 E21 -E20 -E15"/>
    </vehicle>
    <vehicle id="48" depart="129.60">
        <route edges="-E7 E3 E4 -E14 -E13 E16"/>
    </vehicle>
    <vehicle id="49" depart="132.30">
        <route edges="-E4 -E3 E0 E21 -E20"/>
    </vehicle>
    <vehicle id="50" depart="135.00">
        <route edges="E1 -E0 E3 E4 -E14 -E13 E27"/>
    </vehicle>
    <vehicle id="51" depart="137.70">
        <route edges="E8 -E7 E0 E21"/>
    </vehicle>
    <vehicle id="52" depart="140.40">
        <route edges="-E5 -E4 -E3 E7 -E8 E10 E12 E13 E14"/>
    </vehicle>
    <vehicle id="53" depart="143.10">
        <route edges="-E16 E13 E14 -E4 -E3 E0 E21 -E20"/>
    </vehicle>
    <vehicle id="54" depart="145.80">
        <route edges="-E23 -E22 E0 E21 -E20"/>
    </vehicle>
    <vehicle id="55" depart="148.50">
        <route edges="-E13 -E12 -E10 E8 E15 E20"/>
    </vehicle>
    <vehicle id="56" depart="151.20">
        <route edges="-E23 -E22 E3 E4"/>
    </vehicle>
    <vehicle id="57" depart="153.90">
        <route edges="-E23 -E22 E0 -E1 -E2 -E3 E22"/>
    </vehicle>
    <vehicle id="58" depart="156.60">
        <route edges="-E22 E7 E15 -E17 -E16"/>
    </vehicle>
    <vehicle id="59" depart="159.30">
        <route edges="E5 -E19 -E18 E17"/>
    </vehicle>
    <vehicle id="60" depart="162.00">
        <route edges="-E15 -E8"/>
    </vehicle>
    <vehicle id="61" depart="164.70">
        <route edges="-E4 E2 E1"/>
    </vehicle>
    <vehicle id="62" depart="167.40">
        <route edges="E20 E33 E34 -E0 E22"/>
    </vehicle>
    <vehicle id="63" depart="170.10">
        <route edges="E8 -E7 E3 E4 -E14"/>
    </vehicle>
    <vehicle id="64" depart="172.80">
        <route edges="-E36 -E35"/>
    </vehicle>
    <vehicle id="65" depart="175.50">
        <route edges="-E2 -E3 E0"/>
    </vehicle>
    <vehicle id="66" depart="178.20">
        <route edges="-E5 -E4 -E3 E35"/>
    </vehicle>
    <vehicle id="67" depart="180.90">
        <route edges="E10 -E11"/>
    </vehicle>
    <vehicle id="68" depart="183.60">
        <route edges="E8 E15 E20 E33"/>
    </vehicle>
    <vehicle id="69" depart="186.30">
        <route edges="E7 -E8 E10 E12 E13 E14 E5"/>
    </vehicle>
    <vehicle id="70" depart="189.00">
        <route edges="-E8 E10 E12 E13 E14 -E4 -E3 E0 E21 -E20"/>
    </vehicle>
    <vehicle id="71" depart="191.70">
        <route edges="-E36 -E35 E7 -E8 E10 -E11"/>
    </vehicle>
    <vehicle id="72" depart="194.40">
        <route edges="-E35 E7 -E8 E9"/>
    </vehicle>
    <vehicle id="73" depart="197.10">
        <route edges="-E6 -E5 -E4 -E3 E7 -E8"/>
    </vehicle>
    <vehicle id="74" depart="199.80">
        <route edges="E6 E1 -E0 E7 -E8 E9"/>
    </vehicle>
    <vehicle id="75" depart="202.50">
        <route edges="-E18 -E16 E13 E14 -E4 -E3"/>
    </vehicle>
    <vehicle id="76" depart="205.20">
        <route edges="E7 -E8 E10 E12 E16 E17"/>
    </vehicle>
    <vehicle id="77" depart="207.90">
        <route edges="-E12 -E10 E8 E15 -E17 E18"/>
    </vehicle>
    <vehicle id="78" depart="210.60">
        <route edges="-E9 E8 -E7 E22 E23 E34"/>
    </vehicle>
    <vehicle id="79" depart="213.30">
        <route edges="-E18 -E16 E13 E14 -E4 -E3 E7"/>
    </vehicle>
    <vehicle id="80" depart="216.00">
        <route edges="-E13 -E12 -E10 E8 -E7 E0 -E1 -E6 -E19"/>
    </vehicle>
    <vehicle id="81" depart="218.70">
        <route edges="E12 E13 E14 -E4 -E3 E22"/>
    </vehicle>
    <vehicle id="82" depart="221.40">
        <route edges="-E23 -E22 E0 E21 -E20 -E15"/>
    </vehicle>
    <vehicle id="83" depart="224.10">
        <route edges="E34 -E0 E7 E15 E20 E33 -E23"/>
    </vehicle>
    <vehicle id="84" depart="226.80">
        <route edges="E12 E13 E14 -E4 E2"/>
    </vehicle>
    <vehicle id="85" depart="229.50">
        <route edges="-E37 -E35 E3 E4 -E14 -E13 E16 E18"/>
    </vehicle>
    <vehicle id="86" depart="232.20">
        <route edges="E0 -E1 -E2 E4 E5"/>
    </vehicle>
    <vehicle id="87" depart="234.90">
        <route edges="-E23 -E22 E0 -E1 -E6"/>
    </vehicle>
    <vehicle id="88" depart="237.60">
        <route edges="E17 -E15 -E8 E10 E12 E13 E14 -E4 -E3"/>
    </vehicle>
    <vehicle id="89" depart="240.30">
        <route edges="-E13 -E12 -E10 E8 -E7 E3 E2 E1"/>
    </vehicle>
    <vehicle id="90" depart="243.00">
        <route edges="E8 -E7 E3 E4 -E14 -E13 -E12 -E10 E9"/>
    </vehicle>
    <vehicle id="91" depart="245.70">
        <route edges="-E13 -E12 -E10 E8 -E7 E0 E21 -E20"/>
    </vehicle>
    <vehicle id="92" depart="248.40">
        <route edges="E33 -E23 -E22 E35 E36"/>
    </vehicle>
    <vehicle id="93" depart="251.10">
        <route edges="E13 E14 -E4 -E3 E7 -E8 E9"/>
    </vehicle>
    <vehicle id="94" depart="253.80">
        <route edges="E16 E18 E19 E6 E1 -E0"/>
    </vehicle>
    <vehicle id="95" depart="256.50">
        <route edges="E17 -E15 -E7 E3 E4 E5 E6"/>
    </vehicle>
    <vehicle id="96" depart="259.20">
        <route edges="-E17 -E16 E13 E14 -E4 -E3 E0 E21 -E20 -E15"/>
    </vehicle>
    <vehicle id="97" depart="261.90">
        <route edges="-E15 -E8 E10 E12 E16"/>
    </vehicle>
    <vehicle id="98" depart="264.60">
        <route edges="E2 E1 -E0 E22 E23 E34 -E1 -E2"/>
    </vehicle>
    <vehicle id="99" depart="267.30">
        <route edges="-E8 E10 E12 E13 E14 E5 E6 -E2 E4"/>
    </vehicle>
    <vehicle id="100" depart="270.00">
        <route edges="-E0 E3"/>
    </vehicle>
    <vehicle id="101" depart="272.70">
        <route edges="E20 E33 -E23 -E22 E3 E4 -E14 -E13 E16"/>
    </vehicle>
    <vehicle id="102" depart="275.40">
        <route edges="-E4 E2 E1 -E0"/>
    </vehicle>
    <vehicle id="103" depart="278.10">
        <route edges="-E13 -E12 -E10 E8 -E7 E35 E36"/>
    </vehicle>
    <vehicle id="104" depart="280.80">
        <route edges="E3 E4 -E14 -E13 E16 E18"/>
    </vehicle>
    <vehicle id="105" depart="283.50">
        <route edges="-E18 E17 -E15"/>
    </vehicle>
    <vehicle id="106" depart="286.20">
        <route edges="-E3 E35 E37"/>
    </vehicle>
    <vehicle id="107" depart="288.90">
        <route edges="E34 -E1 -E2 -E3 E0 E21 -E20"/>
    </vehicle>
    <vehicle id="108" depart="291.60">
        <route edges="E23 E34 -E0 E35 E36"/>
    </vehicle>
    <vehicle id="109" depart="294.30">
        <route edges="-E37 -E35 E3 E2"/>
    </vehicle>
    <vehicle id="110" depart="297.00">
        <route edges="-E18 -E16 E13 E14 E5"/>
    </vehicle>
    <vehicle id="111" depart="299.70">
        <route edges="-E1 -E2 E4 -E14 -E13 E27"/>
    </vehicle>
    <vehicle id="112" depart="302.40">
        <route edges="E25 -E24"/>
    </vehicle>
    <vehicle id="113" depart="305.10">
        <route edges="E23 E34 -E0 E3 E4 -E14"/>
    </vehicle>
    <vehicle id="114" depart="307.80">
        <route edges="E33 -E23 -E22 E35"/>
    </vehicle>
    <vehicle id="115" depart="310.50">
        <route edges="-E6 -E5 -E4 -E3"/>
    </vehicle>
    <vehicle id="116" depart="313.20">
        <route edges="-E1 -E6 -E19"/>
    </vehicle>
    <vehicle id="117" depart="315.90">
        <route edges="E15 E20 E33 E34 -E1 -E6"/>
    </vehicle>
    <vehicle id="118" depart="318.60">
        <route edges="E7 E15"/>
    </vehicle>
    <vehicle id="119" depart="321.30">
        <route edges="E5 E6 E1 E21 -E20 -E15"/>
    </vehicle>
    <vehicle id="120" depart="324.00">
        <route edges="E7 -E8 E10 E12 E13 E14 E5 -E19"/>
    </vehicle>
    <vehicle id="121" depart="326.70">
        <route edges="-E15 -E8"/>
    </vehicle>
    <vehicle id="122" depart="329.40">
        <route edges="E13"/>
    </vehicle>
    <vehicle id="123" depart="332.10">
        <route edges="-E35 E3 E4 -E14 -E13 E16 E17"/>
    </vehicle>
    <vehicle id="124" depart="334.80">
        <route edges="-E0 E3 E4 E5"/>
    </vehicle>
    <vehicle id="125" depart="337.50">
        <route edges="E21 -E20 -E15 -E7 E22"/>
    </vehicle>
    <vehicle id="126" depart="340.20">
        <route edges="-E3 E22 E23 E34"/>
    </vehicle>
    <vehicle id="127" depart="342.90">
        <route edges="E2 -E6 -E5 -E4 -E3"/>
    </vehicle>
    <vehicle id="128" depart="345.60">
        <route edges="-E3 E0 -E1 -E6 -E5 -E14 -E13 -E12 -E10 E8 -E7"/>
    </vehicle>
    <vehicle id="129" depart="348.30">
        <route edges="-E36 -E35 E0 -E1 -E2 -E3"/>
    </vehicle>
    <vehicle id="130" depart="351.00">
        <route edges="-E16 E13 E14 -E4 -E3 E7 -E8"/>
    </vehicle>
    <vehicle id="131" depart="353.70">
        <route edges="E5 E6 E1 -E0 E22"/>
    </vehicle>
    <vehicle id="132" depart="356.40">
        <route edges="E34 -E0 E3 E2"/>
    </vehicle>
    <vehicle id="133" depart="359.10">
        <route edges="-E4 E2 -E6 -E5 -E14 -E13 E16 E17"/>
    </vehicle>
    <vehicle id="134" depart="361.80">
        <route edges="E16 E18 E19 E6 E1"/>
    </vehicle>
    <vehicle id="135" depart="364.50">
        <route edges="-E5 -E4 -E3 E0 E21 -E20"/>
    </vehicle>
    <vehicle id="136" depart="367.20">
        <route edges="-E7 E35 E37"/>
    </vehicle>
    <vehicle id="137" depart="369.90">
        <route edges="-E14 -E13 E16 E17 -E15 -E8 E10 E12 E13"/>
    </vehicle>
    <vehicle id="138" depart="372.60">
        <route edges="E17 -E15 -E7 E0 E21 -E20"/>
    </vehicle>
    <vehicle id="139" depart="375.30">
        <route edges="-E20 -E15 -E7 E0 -E1"/>
    </vehicle>
    <vehicle id="140" depart="378.00">
        <route edges="-E37 -E35 E7 E15 E20"/>
    </vehicle>
    <vehicle id="141" depart="380.70">
        <route edges="-E8 E10 E12 E16 E17 E20 E33 -E23"/>
    </vehicle>
    <vehicle id="142" depart="383.40">
        <route edges="E16 E18 E19 E6 E1 -E0"/>
    </vehicle>
    <vehicle id="143" depart="386.10">
        <route edges="E21 -E20 -E15 -E7 E3"/>
    </vehicle>
    <vehicle id="144" depart="388.80">
        <route edges="-E15 -E8"/>
    </vehicle>
    <vehicle id="145" depart="391.50">
        <route edges="-E19 -E18 -E16 E13 E14 -E4 -E3 E7"/>
    </vehicle>
    <vehicle id="146" depart="394.20">
        <route edges="E0 -E1 -E2 E4 -E14 -E13 -E12 -E11"/>
    </vehicle>
    <vehicle id="147" depart="396.90">
        <route edges="E17 -E15 -E8 E9"/>
    </vehicle>
    <vehicle id="148" depart="399.60">
        <route edges="E12 E13 E14 E5 E6"/>
    </vehicle>
    <vehicle id="149" depart="402.30">
        <route edges="E34 -E0 E3 E4 -E14 -E13 E16 E18 E19"/>
    </vehicle>
    <vehicle id="150" depart="405.00">
        <route edges="E2 E1 -E0 E7 -E8 E10 E12 E13"/>
    </vehicle>
    <vehicle id="151" depart="407.70">
        <route edges="E3 E4 -E14 -E13 -E12 -E10 E8 E15"/>
    </vehicle>
    <vehicle id="152" depart="410.40">
        <route edges="E22 E23 E34 -E0 E7 -E8 E10 E12 E13 E14"/>
    </vehicle>
    <vehicle id="153" depart="413.10">
        <route edges="E1 -E0 E7 E15 -E17 -E16"/>
    </vehicle>
    <vehicle id="154" depart="415.80">
        <route edges="E19 -E5 -E14 -E13 -E12 -E11"/>
    </vehicle>
    <vehicle id="155" depart="418.50">
        <route edges="-E37 -E35 E7 E15"/>
    </vehicle>
    <vehicle id="156" depart="421.20">
        <route edges="-E37 -E35 E0 -E1 -E2"/>
    </vehicle>
    <vehicle id="157" depart="423.90">
        <route edges="-E4 -E3 E0 -E1 -E2 E4"/>
    </vehicle>
    <vehicle id="158" depart="426.60">
        <route edges="-E35 E22 E23 E34 -E0"/>
    </vehicle>
    <vehicle id="159" depart="429.30">
        <route edges="-E31 -E30 E29"/>
    </vehicle>
    <vehicle id="160" depart="432.00">
        <route edges="E1 -E0 E3 E4 -E14 -E13 E16 E18 E19"/>
    </vehicle>
    <vehicle id="161" depart="434.70">
        <route edges="-E22 E0 E21 -E20"/>
    </vehicle>
    <vehicle id="162" depart="437.40">
        <route edges="-E5 -E4 -E3 E0 -E1"/>
    </vehicle>
    <vehicle id="163" depart="440.10">
        <route edges="-E37 -E35 E0 -E1 -E6 -E19 -E18"/>
    </vehicle>
    <vehicle id="164" depart="442.80">
        <route edges="-E6 -E5 -E14 -E13 E16 E17 -E15"/>
    </vehicle>
    <vehicle id="165" depart="445.50">
        <route edges="E14 -E4 -E3 E0 -E1"/>
    </vehicle>
    <vehicle id="166" depart="448.20">
        <route edges="-E36 -E35 E3 E4 -E14 -E13 E16"/>
    </vehicle>
    <vehicle id="167" depart="450.90">
        <route edges="-E1 -E2 -E3 E7 E15 E20"/>
    </vehicle>
    <vehicle id="168" depart="453.60">
        <route edges="-E17 -E16 E13 E14 -E4 E2 E1"/>
    </vehicle>
    <vehicle id="169" depart="456.30">
        <route edges="-E12 -E10 E8 -E7 E0 -E1 -E6 -E5"/>
    </vehicle>
    <vehicle id="170" depart="459.00">
        <route edges="E22 E23 E34 -E1 -E6 -E5"/>
    </vehicle>
    <vehicle id="171" depart="461.70">
        <route edges="E21 -E20 -E15 -E8 E10 E12 E16 E17 E20 E33"/>
    </vehicle>
    <vehicle id="172" depart="464.40">
        <route edges="-E1 -E2 -E3 E7 E15"/>
    </vehicle>
    <vehicle id="173" depart="467.10">
        <route edges="E5 E6 -E2"/>
    </vehicle>
    <vehicle id="174" depart="469.80">
        <route edges="-E1 -E2 -E3 E7 E15 -E17"/>
    </vehicle>
    <vehicle id="175" depart="472.50">
        <route edges="-E16 E13 E14 -E4 -E3 E22"/>
    </vehicle>
    <vehicle id="176" depart="475.20">
        <route edges="E10 E12 E13 E14 -E4 -E3 E0 E21 -E20"/>
    </vehicle>
    <vehicle id="177" depart="477.90">
        <route edges="E19 E6 E1 -E0 E3"/>
    </vehicle>
    <vehicle id="178" depart="480.60">
        <route edges="-E19 -E18 E17 -E15 -E8 E10 E12 E16 E18 E19"/>
    </vehicle>
    <vehicle id="179" depart="483.30">
        <route edges="E21 -E20 -E15"/>
    </vehicle>
    <vehicle id="180" depart="486.00">
        <route edges="-E15 -E7 E0 -E1"/>
    </vehicle>
    <vehicle id="181" depart="488.70">
        <route edges="-E3 E22"/>
    </vehicle>
    <vehicle id="182" depart="491.40">
        <route edges="E6 -E2 -E3 E0 -E1 -E6"/>
    </vehicle>
    <vehicle id="183" depart="494.10">
        <route edges="E2 -E6 -E5 -E14 -E13 -E12"/>
    </vehicle>
    <vehicle id="184" depart="496.80">
        <route edges="E18 E19 -E5 -E4 E2"/>
    </vehicle>
    <vehicle id="185" depart="499.50">
        <route edges="-E15 -E7 E3"/>
    </vehicle>
    <vehicle id="186" depart="502.20">
        <route edges="-E16 -E12 -E10 E8"/>
    </vehicle>
    <vehicle id="187" depart="504.90">
        <route edges="-E4"/>
    </vehicle>
    <vehicle id="188" depart="507.60">
        <route edges="E30 E31 E32"/>
    </vehicle>
    <vehicle id="189" depart="510.30">
        <route edges="-E15 -E7 E22 E23 E34 -E0 E7"/>
    </vehicle>
    <vehicle id="190" depart="513.00">
        <route edges="E15 E20 E33"/>
    </vehicle>
    <vehicle id="191" depart="515.70">
        <route edges="E19 E6 -E2 -E3 E0"/>
    </vehicle>
    <vehicle id="192" depart="518.40">
        <route edges="E20 E33 -E23 -E22 E7"/>
    </vehicle>
    <vehicle id="193" depart="521.10">
        <route edges="E1 -E0 E7 -E8 E10"/>
    </vehicle>
    <vehicle id="194" depart="523.80">
        <route edges="-E5 -E14 -E13 E27"/>
    </vehicle>
    <vehicle id="195" depart="526.50">
        <route edges="E3 E4 -E14 -E13"/>
    </vehicle>
    <vehicle id="196" depart="529.20">
        <route edges="E33 -E23"/>
    </vehicle>
    <vehicle id="197" depart="531.90">
        <route edges="-E6 -E5 -E14 -E13 E16 E18 E19"/>
    </vehicle>
    <vehicle id="198" depart="534.60">
        <route edges="-E35 E0 -E1"/>
    </vehicle>
    <vehicle id="199" depart="537.30">
        <route edges="-E0 E3 E4 E5 E6"/>
    </vehicle>
    <vehicle id="200" depart="540.00">
        <route edges="-E8 E10 E12 E13 E14 -E4 E2 E1 -E0 E3"/>
    </vehicle>
    <vehicle id="201" depart="542.70">
        <route edges="E18 E19 E6 E1 E21"/>
    </vehicle>
    <vehicle id="202" depart="545.40">
        <route edges="-E14 -E13 -E12 -E10 E8 -E7 E0 E21 -E20"/>
    </vehicle>
    <vehicle id="203" depart="548.10">
        <route edges="E18 E19 E6 -E2 -E3"/>
    </vehicle>
    <vehicle id="204" depart="550.80">
        <route edges="E12 E13 E14 -E4 -E3 E7 -E8 E10"/>
    </vehicle>
    <vehicle id="205" depart="553.50">
        <route edges="E0 -E1 -E2 -E3 E7 -E8"/>
    </vehicle>
    <vehicle id="206" depart="556.20">
        <route edges="-E2 -E3 E0 E21 -E20 -E15"/>
    </vehicle>
    <vehicle id="207" depart="558.90">
        <route edges="E1 -E0 E3"/>
    </vehicle>
    <vehicle id="208" depart="561.60">
        <route edges="-E2 -E3 E0 E21 -E20"/>
    </vehicle>
    <vehicle id="209" depart="564.30">
        <route edges="E7 -E8 E10 E12 E13 E14"/>
    </vehicle>
    <vehicle id="210" depart="567.00">
        <route edges="-E27 -E12 -E10 E8 -E7 E3 E4 -E14"/>
    </vehicle>
    <vehicle id="211" depart="569.70">
        <route edges="-E20 -E15 -E8 E10 E12 E16 E17 E20 E33 -E23 -E22"/>
    </vehicle>
    <vehicle id="212" depart="572.40">
        <route edges="-E2 -E3 E22 E23 E34 -E0"/>
    </vehicle>
    <vehicle id="213" depart="575.10">
        <route edges="E7 -E8 E10 E12 E16"/>
    </vehicle>
    <vehicle id="214" depart="577.80">
        <route edges="E19 E6 E1 E21 -E20 -E15"/>
    </vehicle>
    <vehicle id="215" depart="580.50">
        <route edges="E33 -E23 -E22 E3 E4 -E14 -E13 E16 E17"/>
    </vehicle>
    <vehicle id="216" depart="583.20">
        <route edges="-E7 E0"/>
    </vehicle>
    <vehicle id="217" depart="585.90">
        <route edges="-E2 E4 -E14 -E13 -E12 -E11"/>
    </vehicle>
    <vehicle id="218" depart="588.60">
        <route edges="E5 E6 E1 -E0 E7 -E8 E10"/>
    </vehicle>
    <vehicle id="219" depart="591.30">
        <route edges="-E13 -E12 -E10 E8 E15 E20"/>
    </vehicle>
    <vehicle id="220" depart="594.00">
        <route edges="-E12 -E10 E8 E15 -E17"/>
    </vehicle>
    <vehicle id="221" depart="596.70">
        <route edges="E10 E12 E13 E14 -E4 -E3"/>
    </vehicle>
    <vehicle id="222" depart="599.40">
        <route edges="E8 -E7 E0 E21 -E20 -E15"/>
    </vehicle>
    <vehicle id="223" depart="602.10">
        <route edges="E22 E23 E34 -E0 E3 E4 -E14 -E13 E16 E18 E19"/>
    </vehicle>
    <vehicle id="224" depart="604.80">
        <route edges="E0"/>
    </vehicle>
    <vehicle id="225" depart="607.50">
        <route edges="-E5 -E4 -E3 E35"/>
    </vehicle>
    <vehicle id="226" depart="610.20">
        <route edges="E8 -E7 E0 -E1 -E2 -E3"/>
    </vehicle>
    <vehicle id="227" depart="612.90">
        <route edges="E14 -E4 E2 -E6 -E5 -E14 -E13 E16 E18 E19"/>
    </vehicle>
    <vehicle id="228" depart="615.60">
        <route edges="E20 E33 -E23 -E22 E3 E4 E5 E6"/>
    </vehicle>
    <vehicle id="229" depart="618.30">
        <route edges="-E20"/>
    </vehicle>
    <vehicle id="230" depart="621.00">
        <route edges="E16 E18 E19 E6 E1 -E0 E7 E15 -E17"/>
    </vehicle>
    <vehicle id="231" depart="623.70">
        <route edges="-E19 -E18 -E16 -E12"/>
    </vehicle>
    <vehicle id="232" depart="626.40">
        <route edges="-E0 E22 E23 E34 -E1 -E2 -E3 E0"/>
    </vehicle>
    <vehicle id="233" depart="629.10">
        <route edges="E12 E13 E14 -E4 -E3"/>
    </vehicle>
    <vehicle id="234" depart="631.80">
        <route edges="E19 E6 E1"/>
    </vehicle>
    <vehicle id="235" depart="634.50">
        <route edges="E18 E19 E6 -E2 E4 E5"/>
    </vehicle>
    <vehicle id="236" depart="637.20">
        <route edges="E23 E34 -E0 E3 E2"/>
    </vehicle>
    <vehicle id="237" depart="639.90">
        <route edges="E16 E18 E19 E6 -E2 E4 E5"/>
    </vehicle>
    <vehicle id="238" depart="642.60">
        <route edges="-E4 -E3 E7 E15"/>
    </vehicle>
    <vehicle id="239" depart="645.30">
        <route edges="E16 E18 E19 E6 -E2 E4"/>
    </vehicle>
    <vehicle id="240" depart="648.00">
        <route edges="E3 E4 -E14 -E13 -E12"/>
    </vehicle>
    <vehicle id="241" depart="650.70">
        <route edges="E21 -E20 -E15 -E8 E10 E12 E16 E17"/>
    </vehicle>
    <vehicle id="242" depart="653.40">
        <route edges="-E27 E16 E17 -E15"/>
    </vehicle>
    <vehicle id="243" depart="656.10">
        <route edges="E5 E6 E1 -E0 E7 -E8 E10 E12 E13"/>
    </vehicle>
    <vehicle id="244" depart="658.80">
        <route edges="-E8 E10 E12 E13 E14 -E4 E2 -E6 -E5 -E14 -E13 -E12"/>
    </vehicle>
    <vehicle id="245" depart="661.50">
        <route edges="-E10 E8 -E7 E22 E23 E34 -E0 E7 -E8"/>
    </vehicle>
    <vehicle id="246" depart="664.20">
        <route edges="-E3 E7 E15 E20 E33 -E23"/>
    </vehicle>
    <vehicle id="247" depart="666.90">
        <route edges="-E14 -E13 -E12 -E10 E8 -E7 E22 E23 E34 -E0 E7"/>
    </vehicle>
    <vehicle id="248" depart="669.60">
        <route edges="E3 E4 -E14 -E13 E16 E17"/>
    </vehicle>
    <vehicle id="249" depart="672.30">
        <route edges="E5 E6 E1 -E0 E7 -E8 E9"/>
    </vehicle>
    <vehicle id="250" depart="675.00">
        <route edges="-E7 E0 E21"/>
    </vehicle>
    <vehicle id="251" depart="677.70">
        <route edges="E12 E16 E17 E20"/>
    </vehicle>
    <vehicle id="252" depart="680.40">
        <route edges="-E8 E10 E12 E13 E14 -E4 E2 -E6 -E5 -E14 -E13"/>
    </vehicle>
    <vehicle id="253" depart="683.10">
        <route edges="-E31"/>
    </vehicle>
    <vehicle id="254" depart="685.80">
        <route edges="E17 -E15 -E7 E35"/>
    </vehicle>
    <vehicle id="255" depart="688.50">
        <route edges="-E27 E13 E14 E5 E6"/>
    </vehicle>
    <vehicle id="256" depart="691.20">
        <route edges="-E37 -E35 E7 -E8 E10 E12 E13"/>
    </vehicle>
    <vehicle id="257" depart="693.90">
        <route edges="E8 -E7 E0 E21"/>
    </vehicle>
    <vehicle id="258" depart="696.60">
        <route edges="E1 -E0 E3 E4 -E14 -E13 -E12 -E10 E8 -E7"/>
    </vehicle>
    <vehicle id="259" depart="699.30">
        <route edges="-E2 -E3 E0 -E1 -E6 -E5 -E4"/>
    </vehicle>
    <vehicle id="260" depart="702.00">
        <route edges="E21 -E20 -E15 -E7 E3 E2"/>
    </vehicle>
    <vehicle id="261" depart="704.70">
        <route edges="E22 E23 E34 -E1 -E2"/>
    </vehicle>
    <vehicle id="262" depart="707.40">
        <route edges="E10 E12 E13 E14 E5"/>
    </vehicle>
    <vehicle id="263" depart="710.10">
        <route edges="-E16 -E12 -E10 E8"/>
    </vehicle>
    <vehicle id="264" depart="712.80">
        <route edges="E13 E14 -E4 -E3 E7 E15 E20 E33 -E23 -E22"/>
    </vehicle>
    <vehicle id="265" depart="715.50">
        <route edges="-E18 E17 -E15 -E8 E10 E12 E16"/>
    </vehicle>
    <vehicle id="266" depart="718.20">
        <route edges="E10 E12 E13 E14 -E4 E2 -E6 -E5 -E14 -E13"/>
    </vehicle>
    <vehicle id="267" depart="720.90">
        <route edges="E8 -E7 E3 E4"/>
    </vehicle>
    <vehicle id="268" depart="723.60">
        <route edges="-E6 -E5 -E14 -E13 E16 E17 -E15"/>
    </vehicle>
    <vehicle id="269" depart="726.30">
        <route edges="E3 E2 E1 -E0 E7 -E8 E10 E12"/>
    </vehicle>
    <vehicle id="270" depart="729.00">
        <route edges="E2 E1 -E0 E7 -E8 E10 E12 E13"/>
    </vehicle>
    <vehicle id="271" depart="731.70">
        <route edges="E7 E15 E20 E33 -E23"/>
    </vehicle>
    <vehicle id="272" depart="734.40">
        <route edges="E10 E12 E13 E14 -E4 E2 -E6 -E5"/>
    </vehicle>
    <vehicle id="273" depart="737.10">
        <route edges="E4 E5 E6 E1 -E0 E7 -E8 E10 E12 E13"/>
    </vehicle>
    <vehicle id="274" depart="739.80">
        <route edges="E33 -E23 -E22 E35"/>
    </vehicle>
    <vehicle id="275" depart="742.50">
        <route edges="-E37 -E35 E3 E4 E5"/>
    </vehicle>
    <vehicle id="276" depart="745.20">
        <route edges="-E27 E13 E14 -E4 -E3"/>
    </vehicle>
    <vehicle id="277" depart="747.90">
        <route edges="E12 E13 E14 -E4 -E3 E7 -E8 E9"/>
    </vehicle>
    <vehicle id="278" depart="750.60">
        <route edges="-E8 E10 E12 E13 E14 -E4 -E3 E7 E15 -E17"/>
    </vehicle>
    <vehicle id="279" depart="753.30">
        <route edges="E10 E12 E13 E14 -E4 -E3 E7 E15"/>
    </vehicle>
    <vehicle id="280" depart="756.00">
        <route edges="E11 -E10 E8 E15 E20 E33 -E23 -E22"/>
    </vehicle>
    <vehicle id="281" depart="758.70">
        <route edges="E23 E34 -E0 E3 E4 -E14 -E13 -E12 -E10"/>
    </vehicle>
    <vehicle id="282" depart="761.40">
        <route edges="E7 -E8 E10 E12"/>