<?xml version="1.0" encoding="UTF-8"?>

<!-- generated on 2026-05-15 21:14:10.375012 by Eclipse SUMO randomTrips.py v1_26_0+0000-fa7df22d7f1
<configuration>
    <net-file value="weihai_cbd.net.xml"/>
    <route-file value="routes.rou.xml"/>
    <fringe-factor value="10"/>
    <edge-permission value="passenger"/>
    <end value="10800.0"/>
    <period value="2.7"/>
</configuration>
-->

<routes xmlns:xsi="http://www.w3.org/2001/XMLSchema-instance" xsi:noNamespaceSchemaLocation="http://sumo.dlr.de/xsd/routes_file.xsd">
    <trip id="0" depart="0.00" from="-E9" to="-E11"/>
    <trip id="1" depart="2.70" from="-E36" to="-E11"/>
    <trip id="2" depart="5.40" from="-E27" to="E27"/>
    <trip id="3" depart="8.10" from="-E9" to="E27"/>
    <trip id="4" depart="10.80" from="E19" to="-E0"/>
    <trip id="5" depart="13.50" from="E34" to="E12"/>
    <trip id="6" depart="16.20" from="-E22" to="-E12"/>
    <trip id="7" depart="18.90" from="-E37" to="E9"/>
    <trip id="8" depart="21.60" from="E11" to="-E11"/>
    <trip id="9" depart="24.30" from="-E27" to="-E5"/>
    <trip id="10" depart="27.00" from="-E9" to="E16"/>
    <trip id="11" depart="29.70" from="E23" to="E36"/>
    <trip id="12" depart="32.40" from="-E27" to="-E11"/>
    <trip id="13" depart="35.10" from="-E27" to="E9"/>
    <trip id="14" depart="37.80" from="-E9" to="E2"/>
    <trip id="15" depart="40.50" from="E24" to="E26"/>
    <trip id="16" depart="43.20" from="-E7" to="E4"/>
    <trip id="17" depart="45.90" from="E8" to="E27"/>
    <trip id="18" depart="48.60" from="-E22" to="-E11"/>
    <trip id="19" depart="51.30" from="E17" to="E23"/>
    <trip id="20" depart="54.00" from="-E18" to="E18"/>
    <trip id="21" depart="56.70" from="E8" to="E27"/>
    <trip id="22" depart="59.40" from="E4" to="E37"/>
    <trip id="23" depart="62.10" from="E10" to="E27"/>
    <trip id="24" depart="64.80" from="-E25" to="E26"/>
    <trip id="25" depart="67.50" from="-E36" to="E9"/>
    <trip id="26" depart="70.20" from="-E9" to="-E2"/>
    <trip id="27" depart="72.90" from="E13" to="E27"/>
    <trip id="28" depart="75.60" from="E15" to="E27"/>
    <trip id="29" depart="78.30" from="-E0" to="E1"/>
    <trip id="30" depart="81.00" from="-E10" to="E8"/>
    <trip id="31" depart="83.70" from="-E18" to="E36"/>
    <trip id="32" depart="86.40" from="E13" to="-E17"/>
    <trip id="33" depart="89.10" from="-E36" to="E27"/>
    <trip id="34" depart="91.80" from="-E27" to="-E8"/>
    <trip id="35" depart="94.50" from="E8" to="E3"/>
    <trip id="36" depart="97.20" from="-E36" to="E27"/>
    <trip id="37" depart="99.90" from="-E26" to="-E24"/>
    <trip id="38" depart="102.60" from="-E31" to="E29"/>
    <trip id="39" depart="105.30" from="-E27" to="E5"/>
    <trip id="40" depart="108.00" from="-E27" to="-E17"/>
    <trip id="41" depart="110.70" from="-E36" to="E36"/>
    <trip id="42" depart="113.40" from="E6" to="-E13"/>
    <trip id="43" depart="116.10" from="E24" to="-E25"/>
    <trip id="44" depart="118.80" from="-E36" to="-E35"/>
    <trip id="45" depart="121.50" from="-E27" to="E8"/>
    <trip id="46" depart="124.20" from="-E36" to="E37"/>
    <trip id="47" depart="126.90" from="-E37" to="-E11"/>
    <trip id="48" depart="129.60" from="E8" to="E37"/>
    <trip id="49" depart="132.30" from="E4" to="E8"/>
    <trip id="50" depart="135.00" from="-E36" to="E23"/>
    <trip id="51" depart="137.70" from="E34" to="E9"/>
    <trip id="52" depart="140.40" from="-E37" to="E34"/>
    <trip id="53" depart="143.10" from="-E37" to="E37"/>
    <trip id="54" depart="145.80" from="-E27" to="-E16"/>
    <trip id="55" depart="148.50" from="E24" to="-E25"/>
    <trip id="56" depart="151.20" from="-E37" to="E9"/>
    <trip id="57" depart="153.90" from="-E27" to="E2"/>
    <trip id="58" depart="156.60" from="E1" to="-E6"/>
    <trip id="59" depart="159.30" from="E8" to="E9"/>
    <trip id="60" depart="162.00" from="-E9" to="E9"/>
    <trip id="61" depart="164.70" from="-E9" to="-E1"/>
    <trip id="62" depart="167.40" from="E2" to="-E6"/>
    <trip id="63" depart="170.10" from="-E9" to="E9"/>
    <trip id="64" depart="172.80" from="-E36" to="E5"/>
    <trip id="65" depart="175.50" from="E23" to="-E12"/>
    <trip id="66" depart="178.20" from="-E36" to="-E35"/>
    <trip id="67" depart="180.90" from="-E0" to="E36"/>
    <trip id="68" depart="183.60" from="E11" to="E27"/>
    <trip id="69" depart="186.30" from="-E36" to="-E1"/>
    <trip id="70" depart="189.00" from="-E19" to="E37"/>
    <trip id="71" depart="191.70" from="E17" to="E37"/>
    <trip id="72" depart="194.40" from="-E27" to="-E13"/>
    <trip id="73" depart="197.10" from="E15" to="E37"/>
    <trip id="74" depart="199.80" from="-E32" to="E29"/>
    <trip id="75" depart="202.50" from="E19" to="E37"/>
    <trip id="76" depart="205.20" from="-E12" to="E33"/>
    <trip id="77" depart="207.90" from="E18" to="E37"/>
    <trip id="78" depart="210.60" from="E16" to="-E14"/>
    <trip id="79" depart="213.30" from="-E27" to="E36"/>
    <trip id="80" depart="216.00" from="-E36" to="-E7"/>
    <trip id="81" depart="218.70" from="-E3" to="E37"/>
    <trip id="82" depart="221.40" from="-E9" to="E20"/>
    <trip id="83" depart="224.10" from="E6" to="E27"/>
    <trip id="84" depart="226.80" from="-E25" to="E26"/>
    <trip id="85" depart="229.50" from="E11" to="-E8"/>
    <trip id="86" depart="232.20" from="-E9" to="E27"/>
    <trip id="87" depart="234.90" from="-E32" to="E29"/>
    <trip id="88" depart="237.60" from="-E29" to="E32"/>
    <trip id="89" depart="240.30" from="-E0" to="E8"/>
    <trip id="90" depart="243.00" from="-E9" to="E10"/>
    <trip id="91" depart="245.70" from="E11" to="-E6"/>
    <trip id="92" depart="248.40" from="E31" to="E32"/>
    <trip id="93" depart="251.10" from="-E0" to="-E5"/>
    <trip id="94" depart="253.80" from="-E36" to="E4"/>
    <trip id="95" depart="256.50" from="E17" to="-E23"/>
    <trip id="96" depart="259.20" from="-E20" to="E27"/>
    <trip id="97" depart="261.90" from="-E9" to="E10"/>
    <trip id="98" depart="264.60" from="E20" to="E35"/>
    <trip id="99" depart="267.30" from="-E27" to="-E11"/>
    <trip id="100" depart="270.00" from="-E9" to="-E0"/>
    <trip id="101" depart="272.70" from="E11" to="E36"/>
    <trip id="102" depart="275.40" from="-E37" to="-E11"/>
    <trip id="103" depart="278.10" from="-E27" to="E37"/>
    <trip id="104" depart="280.80" from="-E36" to="E36"/>
    <trip id="105" depart="283.50" from="E0" to="E9"/>
    <trip id="106" depart="286.20" from="-E9" to="E9"/>
    <trip id="107" depart="288.90" from="E11" to="E27"/>
    <trip id="108" depart="291.60" from="E21" to="E27"/>
    <trip id="109" depart="294.30" from="E13" to="E27"/>
    <trip id="110" depart="297.00" from="-E2" to="-E4"/>
    <trip id="111" depart="299.70" from="-E37" to="-E18"/>
    <trip id="112" depart="302.40" from="E11" to="-E11"/>
    <trip id="113" depart="305.10" from="-E36" to="E5"/>
    <trip id="114" depart="307.80" from="-E35" to="E34"/>
    <trip id="115" depart="310.50" from="-E36" to="-E11"/>
    <trip id="116" depart="313.20" from="-E36" to="-E17"/>
    <trip id="117" depart="315.90" from="-E9" to="-E11"/>
    <trip id="118" depart="318.60" from="-E16" to="E18"/>
    <trip id="119" depart="321.30" from="-E27" to="E1"/>
    <trip id="120" depart="324.00" from="E12" to="E18"/>
    <trip id="121" depart="326.70" from="E11" to="E37"/>
    <trip id="122" depart="329.40" from="-E10" to="E27"/>
    <trip id="123" depart="332.10" from="E8" to="E14"/>
    <trip id="124" depart="334.80" from="-E9" to="E36"/>
    <trip id="125" depart="337.50" from="-E9" to="E35"/>
    <trip id="126" depart="340.20" from="-E10" to="-E2"/>
    <trip id="127" depart="342.90" from="E11" to="E36"/>
    <trip id="128" depart="345.60" from="E11" to="-E15"/>
    <trip id="129" depart="348.30" from="E20" to="E9"/>
    <trip id="130" depart="351.00" from="-E29" to="E32"/>
    <trip id="131" depart="353.70" from="E11" to="-E11"/>
    <trip id="132" depart="356.40" from="-E23" to="E36"/>
    <trip id="133" depart="359.10" from="E15" to="E13"/>
    <trip id="134" depart="361.80" from="-E36" to="E16"/>
    <trip id="135" depart="364.50" from="-E37" to="E12"/>
    <trip id="136" depart="367.20" from="-E9" to="E37"/>
    <trip id="137" depart="369.90" from="E11" to="E9"/>
    <trip id="138" depart="372.60" from="E21" to="-E11"/>
    <trip id="139" depart="375.30" from="-E27" to="E36"/>
    <trip id="140" depart="378.00" from="-E1" to="E9"/>
    <trip id="141" depart="380.70" from="-E36" to="E36"/>
    <trip id="142" depart="383.40" from="E11" to="E3"/>
    <trip id="143" depart="386.10" from="-E37" to="E36"/>
    <trip id="144" depart="388.80" from="E11" to="-E7"/>
    <trip id="145" depart="391.50" from="-E37" to="E23"/>
    <trip id="146" depart="394.20" from="E11" to="E10"/>
    <trip id="147" depart="396.90" from="-E27" to="-E16"/>
    <trip id="148" depart="399.60" from="-E27" to="-E16"/>
    <trip id="149" depart="402.30" from="-E37" to="E36"/>
    <trip id="150" depart="405.00" from="E5" to="E27"/>
    <trip id="151" depart="407.70" from="-E37" to="-E35"/>
    <trip id="152" depart="410.40" from="E5" to="E27"/>
    <trip id="153" depart="413.10" from="E11" to="-E17"/>
    <trip id="154" depart="415.80" from="E24" to="E26"/>
    <trip id="155" depart="418.50" from="-E27" to="-E11"/>
    <trip id="156" depart="421.20" from="E20" to="E20"/>
    <trip id="157" depart="423.90" from="-E16" to="-E2"/>
    <trip id="158" depart="426.60" from="-E4" to="-E7"/>
    <trip id="159" depart="429.30" from="E8" to="-E15"/>
    <trip id="160" depart="432.00" from="-E36" to="E37"/>
    <trip id="161" depart="434.70" from="E7" to="-E7"/>
    <trip id="162" depart="437.40" from="E11" to="E9"/>
    <trip id="163" depart="440.10" from="-E9" to="-E20"/>
    <trip id="164" depart="442.80" from="-E8" to="-E5"/>
    <trip id="165" depart="445.50" from="E11" to="E8"/>
    <trip id="166" depart="448.20" from="-E9" to="E9"/>
    <trip id="167" depart="450.90" from="-E36" to="E27"/>
    <trip id="168" depart="453.60" from="-E9" to="E5"/>
    <trip id="169" depart="456.30" from="E21" to="-E11"/>
    <trip id="170" depart="459.00" from="E11" to="E27"/>
    <trip id="171" depart="461.70" from="-E37" to="-E11"/>
    <trip id="172" depart="464.40" from="-E22" to="E9"/>
    <trip id="173" depart="467.10" from="E33" to="E9"/>
    <trip id="174" depart="469.80" from="-E14" to="E36"/>
    <trip id="175" depart="472.50" from="-E37" to="-E12"/>
    <trip id="176" depart="475.20" from="E0" to="E37"/>
    <trip id="177" depart="477.90" from="E2" to="E27"/>
    <trip id="178" depart="480.60" from="-E36" to="-E8"/>
    <trip id="179" depart="483.30" from="-E3" to="E9"/>
    <trip id="180" depart="486.00" from="-E37" to="E22"/>
    <trip id="181" depart="488.70" from="-E27" to="E15"/>
    <trip id="182" depart="491.40" from="-E37" to="E8"/>
    <trip id="183" depart="494.10" from="-E37" to="-E12"/>
    <trip id="184" depart="496.80" from="E7" to="E6"/>
    <trip id="185" depart="499.50" from="-E36" to="-E15"/>
    <trip id="186" depart="502.20" from="E11" to="E27"/>
    <trip id="187" depart="504.90" from="-E37" to="E18"/>
    <trip id="188" depart="507.60" from="-E35" to="E9"/>
    <trip id="189" depart="510.30" from="-E37" to="E36"/>
    <trip id="190" depart="513.00" from="-E7" to="E9"/>
    <trip id="191" depart="515.70" from="-E37" to="-E2"/>
    <trip id="192" depart="518.40" from="-E37" to="E13"/>
    <trip id="193" depart="521.10" from="-E37" to="E27"/>
    <trip id="194" depart="523.80" from="-E36" to="E1"/>
    <trip id="195" depart="526.50" from="E14" to="-E11"/>
    <trip id="196" depart="529.20" from="E2" to="E19"/>
    <trip id="197" depart="531.90" from="-E9" to="E36"/>
    <trip id="198" depart="534.60" from="-E8" to="E37"/>
    <trip id="199" depart="537.30" from="E24" to="E26"/>
    <trip id="200" depart="540.00" from="E11" to="E21"/>
    <trip id="201" depart="542.70" from="-E9" to="-E20"/>
    <trip id="202" depart="545.40" from="-E36" to="E9"/>
    <trip id="203" depart="548.10" from="-E9" to="E37"/>
    <trip id="204" depart="550.80" from="E11" to="E36"/>
    <trip id="205" depart="553.50" from="E24" to="E26"/>
    <trip id="206" depart="556.20" from="E11" to="E5"/>
    <trip id="207" depart="558.90" from="-E15" to="E36"/>
    <trip id="208" depart="561.60" from="-E4" to="E36"/>
    <trip id="209" depart="564.30" from="-E27" to="E6"/>
    <trip id="210" depart="567.00" from="-E1" to="E36"/>
    <trip id="211" depart="569.70" from="-E32" to="E29"/>
    <trip id="212" depart="572.40" from="-E9" to="E23"/>
    <trip id="213" depart="575.10" from="-E27" to="E37"/>
    <trip id="214" depart="577.80" from="-E27" to="E19"/>
    <trip id="215" depart="580.50" from="E7" to="-E6"/>
    <trip id="216" depart="583.20" from="E11" to="E34"/>
    <trip id="217" depart="585.90" from="-E37" to="E5"/>
    <trip id="218" depart="588.60" from="-E9" to="E14"/>
    <trip id="219" depart="591.30" from="-E9" to="E37"/>
    <trip id="220" depart="594.00" from="-E9" to="E5"/>
    <trip id="221" depart="596.70" from="-E9" to="-E8"/>
    <trip id="222" depart="599.40" from="E11" to="-E11"/>
    <trip id="223" depart="602.10" from="-E37" to="E9"/>
    <trip id="224" depart="604.80" from="-E37" to="E6"/>
    <trip id="225" depart="607.50" from="E21" to="-E3"/>
    <trip id="226" depart="610.20" from="E19" to="E34"/>
    <trip id="227" depart="612.90" from="E4" to="E37"/>
    <trip id="228" depart="615.60" from="E11" to="E9"/>
    <trip id="229" depart="618.30" from="E4" to="E36"/>
    <trip id="230" depart="621.00" from="-E1" to="E27"/>
    <trip id="231" depart="623.70" from="E20" to="E9"/>
    <trip id="232" depart="626.40" from="-E12" to="E37"/>
    <trip id="233" depart="629.10" from="-E4" to="E6"/>
    <trip id="234" depart="631.80" from="-E27" to="-E11"/>
    <trip id="235" depart="634.50" from="E20" to="E6"/>
    <trip id="236" depart="637.20" from="-E22" to="E37"/>
    <trip id="237" depart="639.90" from="E0" to="E34"/>
    <trip id="238" depart="642.60" from="E33" to="E22"/>
    <trip id="239" depart="645.30" from="E11" to="-E20"/>
    <trip id="240" depart="648.00" from="-E35" to="-E13"/>
    <trip id="241" depart="650.70" from="-E36" to="E21"/>
    <trip id="242" depart="653.40" from="E34" to="-E11"/>
    <trip id="243" depart="656.10" from="E33" to="E37"/>
    <trip id="244" depart="658.80" from="-E37" to="E9"/>
    <trip id="245" depart="661.50" from="-E27" to="-E16"/>
    <trip id="246" depart="664.20" from="E24" to="E26"/>
    <trip id="247" depart="666.90" from="-E9" to="-E11"/>
    <trip id="248" depart="669.60" from="-E18" to="E36"/>
    <trip id="249" depart="672.30" from="-E0" to="E37"/>
    <trip id="250" depart="675.00" from="-E27" to="-E23"/>
    <trip id="251" depart="677.70" from="-E9" to="-E11"/>
    <trip id="252" depart="680.40" from="-E10" to="E36"/>
    <trip id="253" depart="683.10" from="-E27" to="E1"/>
    <trip id="254" depart="685.80" from="E11" to="E27"/>
    <trip id="255" depart="688.50" from="E15" to="E27"/>
    <trip id="256" depart="691.20" from="E33" to="-E11"/>
    <trip id="257" depart="693.90" from="E16" to="E37"/>
    <trip id="258" depart="696.60" from="-E36" to="E20"/>
    <trip id="259" depart="699.30" from="-E9" to="E27"/>
    <trip id="260" depart="702.00" from="-E3" to="E9"/>
    <trip id="261" depart="704.70" from="-E9" to="-E13"/>
    <trip id="262" depart="707.40" from="E11" to="E37"/>
    <trip id="263" depart="710.10" from="-E9" to="E36"/>
    <trip id="264" depart="712.80" from="-E35" to="-E12"/>
    <trip id="265" depart="715.50" from="E21" to="-E12"/>
    <trip id="266" depart="718.20" from="-E22" to="E33"/>
    <trip id="267" depart="720.90" from="E2" to="E27"/>
    <trip id="268" depart="723.60" from="-E7" to="E27"/>
    <trip id="269" depart="726.30" from="E11" to="E37"/>
    <trip id="270" depart="729.00" from="E11" to="E9"/>
    <trip id="271" depart="731.70" from="-E9" to="E14"/>
    <trip id="272" depart="734.40" from="-E6" to="E36"/>
    <trip id="273" depart="737.10" from="E23" to="E9"/>
    <trip id="274" depart="739.80" from="-E9" to="-E11"/>
    <trip id="275" depart="742.50" from="E3" to="E37"/>
    <trip id="276" depart="745.20" from="E11" to="-E8"/>
    <trip id="277" depart="747.90" from="-E9" to="-E11"/>
    <trip id="278" depart="750.60" from="-E36" to="E12"/>
    <trip id="279" depart="753.30" from="E15" to="E27"/>
    <trip id="280" depart="756.00" from="-E20" to="-E11"/>
    <trip id="281" depart="758.70" from="-E36" to="-E35"/>
    <trip id="282" depart="761.40" from="E11" to="-E15"/>
    <trip id="283" depart="764.10" from="-E36" to="-E4"/>
    <trip id="284" depart="766.80" from="E0" to="-E11"/>
    <trip id="285" depart="769.50" from="-E32" to="E29"/>
    <trip id="286" depart="772.20" from="-E1" to="-E7"/>
    <trip id="287" depart="774.90" from="-E27" to="-E18"/>
    <trip id="288" depart="777.60" from="-E1" to="E34"/>
    <trip id="289" depart="780.30" from="E22" to="E36"/>
    <trip id="290" depart="783.00" from="-E19" to="E37"/>
    <trip id="291" depart="785.70" from="-E15" to="-E10"/>
    <trip id="292" depart="788.40" from="-E6" to="E27"/>
    <trip id="293" depart="791.10" from="E11" to="E22"/>
    <trip id="294" depart="793.80" from="-E3" to="E36"/>
    <trip id="295" depart="796.50" from="-E9" to="E37"/>
    <trip id="296" depart="799.20" from="-E8" to="E27"/>
    <trip id="297" depart="801.90" from="E11" to="E36"/>
    <trip id="298" depart="804.60" from="-E26" to="-E24"/>
    <trip id="299" depart="807.30" from="-E9" to="E36"/>
    <trip id="300" depart="810.00" from="E11" to="E36"/>
    <trip id="301" depart="812.70" from="-E36" to="E8"/>
    <trip id="302" depart="815.40" from="-E9" to="E37"/>
    <trip id="303" depart="818.10" from="-E9" to="-E2"/>
    <trip id="304" depart="820.80" from="-E17" to="E27"/>
    <trip id="305" depart="823.50" from="-E17" to="E37"/>
    <trip id="306" depart="826.20" from="-E19" to="E37"/>
    <trip id="307" depart="828.90" from="-E37" to="E36"/>
    <trip id="308" depart="831.60" from="E24" to="E26"/>
    <trip id="309" depart="834.30" from="-E23" to="E4"/>
    <trip id="310" depart="837.00" from="-E37" to="-E23"/>
    <trip id="311" depart="839.70" from="-E36" to="E27"/>
    <trip id="312" depart="842.40" from="-E31" to="E29"/>
    <trip id="313" depart="845.10" from="E16" to="E3"/>
    <trip id="314" depart="847.80" from="-E18" to="-E12"/>
    <trip id="315" depart="850.50" from="E10" to="-E4"/>
    <trip id="316" depart="853.20" from="-E30" to="E29"/>
    <trip id="317" depart="855.90" from="-E32" to="E29"/>
    <trip id="318" depart="858.60" from="E21" to="E33"/>
    <trip id="319" depart="861.30" from="E11" to="E27"/>
    <trip id="320" depart="864.00" from="-E9" to="E23"/>
    <trip id="321" depart="866.70" from="-E26" to="-E24"/>
    <trip id="322" depart="869.40" from="-E27" to="-E18"/>
    <trip id="323" depart="872.10" from="-E2" to="E37"/>
    <trip id="324" depart="874.80" from="-E23" to="E36"/>
    <trip id="325" depart="877.50" from="E22" to="E37"/>
    <trip id="326" depart="880.20" from="-E14" to="E12"/>
    <trip id="327" depart="882.90" from="E13" to="-E17"/>
    <trip id="328" depart="885.60" from="E21" to="E36"/>
    <trip id="329" depart="888.30" from="E19" to="-E22"/>
    <trip id="330" depart="891.00" from="-E36" to="E21"/>
    <trip id="331" depart="893.70" from="-E36" to="-E4"/>
    <trip id="332" depart="896.40" from="-E37" to="-E8"/>
    <trip id="333" depart="899.10" from="E22" to="E16"/>
    <trip id="334" depart="901.80" from="E33" to="E9"/>
    <trip id="335" depart="904.50" from="-E36" to="-E4"/>
    <trip id="336" depart="907.20" from="E4" to="E36"/>
    <trip id="337" depart="909.90" from="E18" to="-E18"/>
    <trip id="338" depart="912.60" from="-E23" to="E37"/>
    <trip id="339" depart="915.30" from="-E36" to="E9"/>
    <trip id="340" depart="918.00" from="-E27" to="E9"/>
    <trip id="341" depart="920.70" from="-E9" to="E36"/>
    <trip id="342" depart="923.40" from="-E36" to="-E0"/>
    <trip id="343" depart="926.10" from="-E2" to="-E3"/>
    <trip id="344" depart="928.80" from="E22" to="E27"/>
    <trip id="345" depart="931.50" from="E11" to="E27"/>
    <trip id="346" depart="934.20" from="-E36" to="E36"/>
    <trip id="347" depart="936.90" from="-E36" to="-E14"/>
    <trip id="348" depart="939.60" from="-E10" to="E27"/>
    <trip id="349" depart="942.30" from="-E27" to="-E19"/>
    <trip id="350" depart="945.00" from="-E27" to="E22"/>
    <trip id="351" depart="947.70" from="E0" to="-E11"/>
    <trip id="352" depart="950.40" from="E5" to="-E11"/>
    <trip id="353" depart="953.10" from="-E37" to="E27"/>
    <trip id="354" depart="955.80" from="E7" to="E27"/>
    <trip id="355" depart="958.50" from="-E9" to="E9"/>
    <trip id="356" depart="961.20" from="E16" to="E13"/>
    <trip id="357" depart="963.90" from="E14" to="E33"/>
    <trip id="358" depart="966.60" from="-E37" to="E36"/>
    <trip id="359" depart="969.30" from="-E9" to="E36"/>
    <trip id="360" depart="972.00" from="-E18" to="E36"/>
    <trip id="361" depart="974.70" from="-E36" to="-E5"/>
    <trip id="362" depart="977.40" from="-E14" to="E9"/>
    <trip id="363" depart="980.10" from="-E37" to="E9"/>
    <trip id="364" depart="982.80" from="-E37" to="-E3"/>
    <trip id="365" depart="985.50" from="-E37" to="E8"/>
    <trip id="366" depart="988.20" from="-E37" to="E36"/>
    <trip id="367" depart="990.90" from="E11" to="-E11"/>
    <trip id="368" depart="993.60" from="-E9" to="E36"/>
    <trip id="369" depart="996.30" from="-E37" to="E0"/>
    <trip id="370" depart="999.00" from="E6" to="E9"/>
    <trip id="371" depart="1001.70" from="E10" to="E9"/>
    <trip id="372" depart="1004.40" from="E15" to="-E11"/>
    <trip id="373" depart="1007.10" from="-E18" to="E36"/>
    <trip id="374" depart="1009.80" from="E10" to="E9"/>
    <trip id="375" depart="1012.50" from="-E6" to="E27"/>
    <trip id="376" depart="1015.20" from="-E27" to="-E15"/>
    <trip id="377" depart="1017.90" from="-E36" to="E9"/>
    <trip id="378" depart="1020.60" from="-E37" to="-E16"/>
    <trip id="379" depart="1023.30" from="E24" to="E26"/>
    <trip id="380" depart="1026.00" from="E24" to="E26"/>
    <trip id="381" depart="1028.70" from="E23" to="E0"/>
    <trip id="382" depart="1031.40" from="-E37" to="E37"/>
    <trip id="383" depart="1034.10" from="E17" to="E27"/>
    <trip id="384" depart="1036.80" from="-E26" to="-E24"/>
    <trip id="385" depart="1039.50" from="-E12" to="E27"/>
    <trip id="386" depart="1042.20" from="-E20" to="-E8"/>
    <trip id="387" depart="1044.90" from="-E37" to="E36"/>
    <trip id="388" depart="1047.60" from="E20" to="-E11"/>
    <trip id="389" depart="1050.30" from="-E27" to="E9"/>
    <trip id="390" depart="1053.00" from="-E36" to="E6"/>
    <trip id="391" depart="1055.70" from="-E16" to="-E16"/>
    <trip id="392" depart="1058.40" from="-E37" to="-E16"/>
    <trip id="393" depart="1061.10" from="-E37" to="-E23"/>
    <trip id="394" depart="1063.80" from="-E9" to="E37"/>
    <trip id="395" depart="1066.50" from="-E4" to="E37"/>
    <trip id="396" depart="1069.20" from="-E13" to="-E11"/>
    <trip id="397" depart="1071.90" from="-E9" to="E36"/>
    <trip id="398" depart="1074.60" from="-E36" to="E36"/>
    <trip id="399" depart="1077.30" from="E10" to="-E6"/>
    <trip id="400" depart="1080.00" from="-E19" to="-E11"/>
    <trip id="401" depart="1082.70" from="-E29" to="E32"/>
    <trip id="402" depart="1085.40" from="E11" to="E37"/>
    <trip id="403" depart="1088.10" from="E5" to="-E17"/>
    <trip id="404" depart="1090.80" from="-E22" to="-E5"/>
    <trip id="405" depart="1093.50" from="-E32" to="E29"/>
    <trip id="406" depart="1096.20" from="-E27" to="E37"/>
    <trip id="407" depart="1098.90" from="-E6" to="-E8"/>
    <trip id="408" depart="1101.60" from="E33" to="E27"/>
    <trip id="409" depart="1104.30" from="-E37" to="E37"/>
    <trip id="410" depart="1107.00" from="-E37" to="E37"/>
    <trip id="411" depart="1109.70" from="-E36" to="E37"/>
    <trip id="412" depart="1112.40" from="E11" to="E36"/>
    <trip id="413" depart="1115.10" from="-E37" to="-E11"/>
    <trip id="414" depart="1117.80" from="-E37" to="E36"/>
    <trip id="415" depart="1120.50" from="E10" to="-E15"/>
    <trip id="416" depart="1123.20" from="E5" to="E2"/>
    <trip id="417" depart="1125.90" from="E17" to="E12"/>
    <trip id="418" depart="1128.60" from="-E27" to="E27"/>
    <trip id="419" depart="1131.30" from="-E37" to="-E11"/>
    <trip id="420" depart="1134.00" from="-E9" to="E27"/>
    <trip id="421" depart="1136.70" from="E11" to="-E6"/>
    <trip id="422" depart="1139.40" from="E11" to="-E11"/>
    <trip id="423" depart="1142.10" from="-E36" to="E9"/>
    <trip id="424" depart="1144.80" from="E15" to="E36"/>
    <trip id="425" depart="1147.50" from="-E7" to="-E23"/>
    <trip id="426" depart="1150.20" from="E23" to="-E2"/>
    <trip id="427" depart="1152.90" from="E10" to="-E11"/>
    <trip id="428" depart="1155.60" from="E33" to="-E14"/>
    <trip id="429" depart="1158.30" from="-E10" to="-E8"/>
    <trip id="430" depart="1161.00" from="E11" to="-E11"/>
    <trip id="431" depart="1163.70" from="-E26" to="-E24"/>
    <trip id="432" depart="1166.40" from="-E37" to="-E8"/>
    <trip id="433" depart="1169.10" from="-E27" to="E27"/>
    <trip id="434" depart="1171.80" from="-E27" to="E9"/>
    <trip id="435" depart="1174.50" from="E1" to="E18"/>
    <trip id="436" depart="1177.20" from="E6" to="E36"/>
    <trip id="437" depart="1179.90" from="E34" to="E36"/>
    <trip id="438" depart="1182.60" from="E11" to="E13"/>
    <trip id="439" depart="1185.30" from="-E36" to="-E3"/>
    <trip id="440" depart="1188.00" from="-E37" to="E9"/>
    <trip id="441" depart="1190.70" from="E11" to="-E18"/>
    <trip id="442" depart="1193.40" from="-E16" to="E22"/>
    <trip id="443" depart="1196.10" from="E11" to="-E13"/>
    <trip id="444" depart="1198.80" from="E14" to="-E0"/>
    <trip id="445" depart="1201.50" from="-E37" to="E8"/>
    <trip id="446" depart="1204.20" from="E24" to="E26"/>
    <trip id="447" depart="1206.90" from="-E27" to="E9"/>
    <trip id="448" depart="1209.60" from="-E6" to="E27"/>
    <trip id="449" depart="1212.30" from="E11" to="E9"/>
    <trip id="450" depart="1215.00" from="E3" to="E37"/>
    <trip id="451" depart="1217.70" from="-E1" to="E27"/>
    <trip id="452" depart="1220.40" from="-E36" to="-E3"/>
    <trip id="453" depart="1223.10" from="-E27" to="E33"/>
    <trip id="454" depart="1225.80" from="E17" to="E27"/>
    <trip id="455" depart="1228.50" from="E21" to="E27"/>
    <trip id="456" depart="1231.20" from="-E27" to="-E19"/>
    <trip id="457" depart="1233.90" from="E11" to="E9"/>
    <trip id="458" depart="1236.60" from="-E29" to="E32"/>
    <trip id="459" depart="1239.30" from="E11" to="-E11"/>
    <trip id="460" depart="1242.00" from="-E35" to="E27"/>
    <trip id="461" depart="1244.70" from="-E36" to="E27"/>
    <trip id="462" depart="1247.40" from="-E27" to="E35"/>
    <trip id="463" depart="1250.10" from="-E2" to="E27"/>
    <trip id="464" depart="1252.80" from="-E17" to="E27"/>
    <trip id="465" depart="1255.50" from="-E37" to="E27"/>
    <trip id="466" depart="1258.20" from="-E37" to="-E15"/>
    <trip id="467" depart="1260.90" from="-E22" to="E27"/>
    <trip id="468" depart="1263.60" from="-E15" to="E13"/>
    <trip id="469" depart="1266.30" from="-E18" to="E9"/>
    <trip id="470" depart="1269.00" from="E13" to="E9"/>
    <trip id="471" depart="1271.70" from="-E9" to="E23"/>
    <trip id="472" depart="1274.40" from="E7" to="E18"/>
    <trip id="473" depart="1277.10" from="-E9" to="E27"/>
    <trip id="474" depart="1279.80" from="-E9" to="E13"/>
    <trip id="475" depart="1282.50" from="-E27" to="-E0"/>
    <trip id="476" depart="1285.20" from="-E12" to="-E6"/>
    <trip id="477" depart="1287.90" from="E1" to="E27"/>
    <trip id="478" depart="1290.60" from="-E37" to="E36"/>
    <trip id="479" depart="1293.30" from="-E27" to="E13"/>
    <trip id="480" depart="1296.00" from="E11" to="-E15"/>
    <trip id="481" depart="1298.70" from="E19" to="E22"/>
    <trip id="482" depart="1301.40" from="E13" to="E37"/>
    <trip id="483" depart="1304.10" from="-E23" to="-E11"/>
    <trip id="484" depart="1306.80" from="-E15" to="E33"/>
    <trip id="485" depart="1309.50" from="-E27" to="E37"/>
    <trip id="486" depart="1312.20" from="-E17" to="E27"/>
    <trip id="487" depart="1314.90" from="E11" to="E0"/>
    <trip id="488" depart="1317.60" from="-E27" to="-E6"/>
    <trip id="489" depart="1320.30" from="-E17" to="E9"/>
    <trip id="490" depart="1323.00" from="-E37" to="E9"/>
    <trip id="491" depart="1325.70" from="E31" to="E32"/>
    <trip id="492" depart="1328.40" from="E16" to="E0"/>
    <trip id="493" depart="1331.10" from="-E35" to="-E2"/>
    <trip id="494" depart="1333.80" from="-E36" to="E37"/>
    <trip id="495" depart="1336.50" from="-E29" to="E32"/>
    <trip id="496" depart="1339.20" from="E19" to="E6"/>
    <trip id="497" depart="1341.90" from="-E4" to="E9"/>
    <trip id="498" depart="1344.60" from="-E37" to="-E18"/>
    <trip id="499" depart="1347.30" from="-E9" to="E7"/>
    <trip id="500" depart="1350.00" from="-E29" to="E32"/>
    <trip id="501" depart="1352.70" from="-E9" to="E37"/>
    <trip id="502" depart="1355.40" from="-E27" to="E36"/>
    <trip id="503" depart="1358.10" from="E11" to="E27"/>
    <trip id="504" depart="1360.80" from="-E36" to="E37"/>
    <trip id="505" depart="1363.50" from="-E10" to="E9"/>
    <trip id="506" depart="1366.20" from="-E27" to="E6"/>
    <trip id="507" depart="1368.90" from="-E37" to="E36"/>
    <trip id="508" depart="1371.60" from="-E32" to="-E30"/>
    <trip id="509" depart="1374.30" from="-E23" to="E9"/>
    <trip id="510" depart="1377.00" from="-E36" to="E37"/>
    <trip id="511" depart="1379.70" from="-E35" to="E27"/>
    <trip id="512" depart="1382.40" from="-E27" to="-E19"/>