<?xml version="1.0" encoding="UTF-8"?>

<!-- generated on 2026-05-13T14:05:37.774738+09:00 by Eclipse SUMO netedit 1.26.0
<neteditConfiguration xmlns:xsi="http://www.w3.org/2001/XMLSchema-instance" xsi:noNamespaceSchemaLocation="http://sumo.dlr.de/xsd/neteditConfiguration.xsd">

    <input>
        <sumo-net-file value="C:\Users\le\Desktop\Tolling_Project\weihai_cbd.net.xml"/>
    </input>

    <output>
        <output-file value="C:\Users\le\Desktop\Tolling_Project\weihai_cbd.net.xml"/>
    </output>

    <processing>
        <offset.disable-normalization value="true"/>
    </processing>

    <junctions>
        <no-turnarounds value="true"/>
    </junctions>

    <netedit>
        <new-network value="false"/>
    </netedit>

</neteditConfiguration>
-->

<net version="1.20" junctionCornerDetail="5" limitTurnSpeed="5.50" xmlns:xsi="http://www.w3.org/2001/XMLSchema-instance" xsi:noNamespaceSchemaLocation="http://sumo.dlr.de/xsd/net_file.xsd">

    <location netOffset="0.00,0.00" convBoundary="-1500.00,-1400.00,700.00,600.00" origBoundary="10000000000.00,10000000000.00,-10000000000.00,-10000000000.00" projParameter="!"/>

    <edge id=":J1_0" function="internal">
        <lane id=":J1_0_0" index="0" speed="6.51" length="9.03" shape="98.40,107.20 98.05,104.75 97.00,103.00 95.25,101.95 92.80,101.60"/>
    </edge>
    <edge id=":J1_1" function="internal">
        <lane id=":J1_1_0" index="0" speed="13.89" length="18.93" shape="98.40,107.20 98.40,88.27"/>
    </edge>
    <edge id=":J1_2" function="internal">
        <lane id=":J1_2_0" index="0" speed="13.89" length="4.39" shape="98.40,107.20 98.95,103.21 99.08,102.88"/>
    </edge>
    <edge id=":J1_3" function="internal">
        <lane id=":J1_3_0" index="0" speed="8.71" length="2.01" shape="98.40,107.20 99.17,105.34"/>
    </edge>
    <edge id=":J1_20" function="internal">
        <lane id=":J1_20_0" index="0" speed="13.89" length="14.85" shape="99.08,102.88 100.59,99.11 103.33,94.90 107.16,90.58"/>
    </edge>
    <edge id=":J1_21" function="internal">
        <lane id=":J1_21_0" index="0" speed="8.71" length="15.01" shape="99.17,105.34 99.73,103.97 103.07,101.15 107.40,99.16 111.73,98.40"/>
    </edge>
    <edge id=":J1_4" function="internal">
        <lane id=":J1_4_0" index="0" speed="7.65" length="12.89" shape="111.73,101.60 107.30,101.95 104.13,103.00 102.23,104.75 101.60,107.20"/>
    </edge>
    <edge id=":J1_5" function="internal">
        <lane id=":J1_5_0" index="0" speed="13.89" length="18.93" shape="111.73,101.60 92.80,101.60"/>
    </edge>
    <edge id=":J1_6" function="internal">
        <lane id=":J1_6_0" index="0" speed="9.73" length="21.49" shape="111.73,101.60 105.90,100.77 101.73,98.27 99.23,94.10 98.40,88.27"/>
    </edge>
    <edge id=":J1_7" function="internal">
        <lane id=":J1_7_0" index="0" speed="7.42" length="19.31" shape="111.73,101.60 105.59,100.91 102.79,98.84 103.31,95.40 107.16,90.58"/>
    </edge>
    <edge id=":J1_8" function="internal">
        <lane id=":J1_8_0" index="0" speed="5.47" length="9.74" shape="109.42,92.84 107.48,95.27 107.22,97.01 108.63,98.05 111.73,98.40"/>
    </edge>
    <edge id=":J1_9" function="internal">
        <lane id=":J1_9_0" index="0" speed="13.42" length="16.74" shape="109.42,92.84 106.00,96.67 103.56,100.34 102.09,103.85 101.60,107.20"/>
    </edge>
    <edge id=":J1_10" function="internal">
        <lane id=":J1_10_0" index="0" speed="13.89" length="19.24" shape="109.42,92.84 105.10,96.67 100.89,99.41 96.79,101.05 92.80,101.60"/>
    </edge>
    <edge id=":J1_11" function="internal">
        <lane id=":J1_11_0" index="0" speed="7.42" length="19.31" shape="109.42,92.84 104.60,96.69 101.16,97.21 99.09,94.41 98.40,88.27"/>
    </edge>
    <edge id=":J1_12" function="internal">
        <lane id=":J1_12_0" index="0" speed="5.47" length="9.74" shape="101.60,88.27 101.95,91.37 102.99,92.78 104.73,92.52 107.16,90.58"/>
    </edge>
    <edge id=":J1_13" function="internal">
        <lane id=":J1_13_0" index="0" speed="8.54" length="16.33" shape="101.60,88.27 102.23,92.70 104.13,95.87 107.30,97.77 111.73,98.40"/>
    </edge>
    <edge id=":J1_14" function="internal">
        <lane id=":J1_14_0" index="0" speed="13.89" length="18.93" shape="101.60,88.27 101.60,107.20"/>
    </edge>
    <edge id=":J1_15" function="internal">
        <lane id=":J1_15_0" index="0" speed="8.71" length="6.18" shape="101.60,88.27 100.84,92.60 100.10,94.22"/>
    </edge>
    <edge id=":J1_22" function="internal">
        <lane id=":J1_22_0" index="0" speed="8.71" length="10.84" shape="100.10,94.22 98.85,96.93 96.03,100.27 92.80,101.60"/>
    </edge>
    <edge id=":J1_16" function="internal">
        <lane id=":J1_16_0" index="0" speed="7.65" length="12.89" shape="92.80,98.40 95.25,97.77 97.00,95.87 98.05,92.70 98.40,88.27"/>
    </edge>
    <edge id=":J1_17" function="internal">
        <lane id=":J1_17_0" index="0" speed="13.42" length="16.74" shape="92.80,98.40 96.15,97.91 99.66,96.44 103.33,94.00 107.16,90.58"/>
    </edge>
    <edge id=":J1_18" function="internal">
        <lane id=":J1_18_0" index="0" speed="13.89" length="18.93" shape="92.80,98.40 111.73,98.40"/>
    </edge>
    <edge id=":J1_19" function="internal">
        <lane id=":J1_19_0" index="0" speed="8.00" length="14.19" shape="92.80,98.40 96.65,98.95 99.40,100.60 101.05,103.35 101.60,107.20"/>
    </edge>
    <edge id=":J10_0" function="internal">
        <lane id=":J10_0_0" index="0" speed="13.89" length="14.40" shape="-701.60,-592.80 -701.60,-607.20"/>
    </edge>
    <edge id=":J10_1" function="internal">
        <lane id=":J10_1_0" index="0" speed="8.00" length="4.07" shape="-701.60,-592.80 -701.05,-596.65 -700.96,-596.80"/>
    </edge>
    <edge id=":J10_6" function="internal">
        <lane id=":J10_6_0" index="0" speed="8.00" length="10.13" shape="-700.96,-596.80 -699.40,-599.40 -696.65,-601.05 -692.80,-601.60"/>
    </edge>
    <edge id=":J10_2" function="internal">
        <lane id=":J10_2_0" index="0" speed="6.51" length="9.03" shape="-692.80,-598.40 -695.25,-598.05 -697.00,-597.00 -698.05,-595.25 -698.40,-592.80"/>
    </edge>
    <edge id=":J10_3" function="internal">
        <lane id=":J10_3_0" index="0" speed="8.00" length="14.19" shape="-692.80,-598.40 -696.65,-598.95 -699.40,-600.60 -701.05,-603.35 -701.60,-607.20"/>
    </edge>
    <edge id=":J10_4" function="internal">
        <lane id=":J10_4_0" index="0" speed="6.51" length="9.03" shape="-698.40,-607.20 -698.05,-604.75 -697.00,-603.00 -695.25,-601.95 -692.80,-601.60"/>
    </edge>
    <edge id=":J10_5" function="internal">
        <lane id=":J10_5_0" index="0" speed="13.89" length="14.40" shape="-698.40,-607.20 -698.40,-592.80"/>
    </edge>
    <edge id=":J12_0" function="internal">
        <lane id=":J12_0_0" index="0" speed="10.32" length="13.94" shape="-701.60,-892.80 -702.07,-895.86 -703.48,-898.71 -705.84,-901.37 -709.14,-903.82"/>
    </edge>
    <edge id=":J12_1" function="internal">
        <lane id=":J12_1_0" index="0" speed="13.89" length="16.97" shape="-701.60,-892.80 -701.60,-909.77"/>
    </edge>
    <edge id=":J12_2" function="internal">
        <lane id=":J12_2_0" index="0" speed="8.00" length="4.07" shape="-701.60,-892.80 -701.05,-896.65 -700.96,-896.80"/>
    </edge>
    <edge id=":J12_12" function="internal">
        <lane id=":J12_12_0" index="0" speed="8.00" length="10.13" shape="-700.96,-896.80 -699.40,-899.40 -696.65,-901.05 -692.80,-901.60"/>
    </edge>
    <edge id=":J12_3" function="internal">
        <lane id=":J12_3_0" index="0" speed="6.51" length="9.03" shape="-692.80,-898.40 -695.25,-898.05 -697.00,-897.00 -698.05,-895.25 -698.40,-892.80"/>
    </edge>
    <edge id=":J12_4" function="internal">
        <lane id=":J12_4_0" index="0" speed="13.89" length="17.38" shape="-692.80,-898.40 -696.87,-898.87 -701.25,-900.12 -705.50,-901.86 -709.14,-903.82"/>
    </edge>
    <edge id=":J12_5" function="internal">
        <lane id=":J12_5_0" index="0" speed="8.32" length="15.44" shape="-692.80,-898.40 -696.03,-899.50 -698.85,-902.29 -700.84,-905.97 -701.60,-909.77"/>
    </edge>
    <edge id=":J12_6" function="internal">
        <lane id=":J12_6_0" index="0" speed="7.17" length="11.18" shape="-698.40,-909.77 -698.05,-906.20 -697.00,-903.64 -695.25,-902.11 -692.80,-901.60"/>
    </edge>
    <edge id=":J12_7" function="internal">
        <lane id=":J12_7_0" index="0" speed="13.89" length="16.97" shape="-698.40,-909.77 -698.40,-892.80"/>
    </edge>
    <edge id=":J12_8" function="internal">
        <lane id=":J12_8_0" index="0" speed="7.39" length="5.04" shape="-698.40,-909.77 -699.06,-904.78"/>
    </edge>
    <edge id=":J12_13" function="internal">
        <lane id=":J12_13_0" index="0" speed="7.39" length="12.02" shape="-699.06,-904.78 -699.07,-904.65 -701.08,-901.96 -704.44,-901.68 -709.14,-903.82"/>
    </edge>
    <edge id=":J12_9" function="internal">
        <lane id=":J12_9_0" index="0" speed="5.63" length="9.28" shape="-707.44,-906.54 -704.88,-905.37 -703.06,-905.52 -701.96,-906.99 -701.60,-909.77"/>
    </edge>
    <edge id=":J12_10" function="internal">
        <lane id=":J12_10_0" index="0" speed="13.89" length="15.63" shape="-707.44,-906.54 -704.07,-904.65 -700.40,-903.07 -696.60,-902.00 -692.80,-901.60"/>
    </edge>
    <edge id=":J12_11" function="internal">
        <lane id=":J12_11_0" index="0" speed="11.32" length="16.90" shape="-707.44,-906.54 -704.12,-903.77 -701.22,-900.13 -699.18,-896.25 -698.40,-892.80"/>
    </edge>
    <edge id=":J13_0" function="internal">
        <lane id=":J13_0_0" index="0" speed="3.90" length="2.58" shape="98.40,-896.80 98.30,-897.50 98.00,-898.00 97.50,-898.30 96.80,-898.40"/>
    </edge>
    <edge id=":J13_1" function="internal">
        <lane id=":J13_1_0" index="0" speed="6.08" length="7.74" shape="96.80,-901.60 98.90,-901.30 100.40,-900.40 101.30,-898.90 101.60,-896.80"/>
    </edge>
    <edge id=":J14_0" function="internal">
        <lane id=":J14_0_0" index="0" speed="10.02" length="22.85" shape="-1484.84,601.60 -1492.17,600.89 -1497.41,598.76 -1500.55,595.20 -1501.60,590.23"/>
    </edge>
    <edge id=":J14_1" function="internal">
        <lane id=":J14_1_0" index="0" speed="6.41" length="3.24" shape="-1484.84,601.60 -1487.94,600.62"/>
    </edge>
    <edge id=":J14_6" function="internal">
        <lane id=":J14_6_0" index="0" speed="6.41" length="12.25" shape="-1487.94,600.62 -1488.77,600.36 -1490.82,597.37 -1490.67,593.75 -1487.99,590.61"/>
    </edge>
    <edge id=":J14_2" function="internal">
        <lane id=":J14_2_0" index="0" speed="5.50" length="10.90" shape="-1486.30,593.32 -1489.25,595.54 -1490.00,597.13 -1488.53,598.08 -1484.84,598.40"/>
    </edge>
    <edge id=":J14_3" function="internal">
        <lane id=":J14_3_0" index="0" speed="8.13" length="20.95" shape="-1486.30,593.32 -1492.99,596.72 -1497.77,597.33 -1500.64,595.17 -1501.60,590.23"/>
    </edge>
    <edge id=":J14_4" function="internal">
        <lane id=":J14_4_0" index="0" speed="6.61" length="13.34" shape="-1498.40,590.23 -1497.75,592.83 -1495.80,593.77 -1492.55,593.02 -1487.99,590.61"/>
    </edge>
    <edge id=":J14_5" function="internal">
        <lane id=":J14_5_0" index="0" speed="8.88" length="17.74" shape="-1498.40,590.23 -1497.55,593.80 -1495.01,596.36 -1490.77,597.89 -1484.84,598.40"/>
    </edge>
    <edge id=":J15_0" function="internal">
        <lane id=":J15_0_0" index="0" speed="10.02" length="22.85" shape="-1501.60,-1390.23 -1500.55,-1395.20 -1497.41,-1398.76 -1492.17,-1400.89 -1484.84,-1401.60"/>
    </edge>
    <edge id=":J15_1" function="internal">
        <lane id=":J15_1_0" index="0" speed="8.13" length="7.83" shape="-1501.60,-1390.23 -1500.64,-1395.17 -1498.41,-1396.85"/>
    </edge>
    <edge id=":J15_6" function="internal">
        <lane id=":J15_6_0" index="0" speed="8.13" length="13.12" shape="-1498.41,-1396.85 -1497.77,-1397.33 -1492.99,-1396.72 -1486.30,-1393.32"/>
    </edge>
    <edge id=":J15_2" function="internal">
        <lane id=":J15_2_0" index="0" speed="6.61" length="13.34" shape="-1487.99,-1390.61 -1492.55,-1393.02 -1495.80,-1393.77 -1497.75,-1392.83 -1498.40,-1390.23"/>
    </edge>
    <edge id=":J15_3" function="internal">
        <lane id=":J15_3_0" index="0" speed="6.41" length="15.49" shape="-1487.99,-1390.61 -1490.67,-1393.75 -1490.82,-1397.37 -1488.77,-1400.36 -1484.84,-1401.60"/>
    </edge>
    <edge id=":J15_4" function="internal">
        <lane id=":J15_4_0" index="0" speed="5.50" length="10.90" shape="-1484.84,-1398.40 -1488.53,-1398.08 -1490.00,-1397.13 -1489.25,-1395.54 -1486.30,-1393.32"/>
    </edge>
    <edge id=":J15_5" function="internal">
        <lane id=":J15_5_0" index="0" speed="8.88" length="17.74" shape="-1484.84,-1398.40 -1490.77,-1397.89 -1495.01,-1396.36 -1497.55,-1393.80 -1498.40,-1390.23"/>
    </edge>
    <edge id=":J16_0" function="internal">
        <lane id=":J16_0_0" index="0" speed="3.90" length="2.58" shape="698.40,-1396.80 698.30,-1397.50 698.00,-1398.00 697.50,-1398.30 696.80,-1398.40"/>
    </edge>
    <edge id=":J16_1" function="internal">
        <lane id=":J16_1_0" index="0" speed="6.08" length="7.74" shape="696.80,-1401.60 698.90,-1401.30 700.40,-1400.40 701.30,-1398.90 701.60,-1396.80"/>
    </edge>
    <edge id=":J17_0" function="internal">
        <lane id=":J17_0_0" index="0" speed="6.08" length="7.74" shape="701.60,596.80 701.30,598.90 700.40,600.40 698.90,601.30 696.80,601.60"/>
    </edge>
    <edge id=":J17_1" function="internal">
        <lane id=":J17_1_0" index="0" speed="3.90" length="2.58" shape="696.80,598.40 697.50,598.30 698.00,598.00 698.30,597.50 698.40,596.80"/>
    </edge>
    <edge id=":J18_0" function="internal">
        <lane id=":J18_0_0" index="0" speed="6.08" length="7.74" shape="103.20,301.60 101.10,301.30 99.60,300.40 98.70,298.90 98.40,296.80"/>
    </edge>
    <edge id=":J18_1" function="internal">
        <lane id=":J18_1_0" index="0" speed="3.90" length="2.58" shape="101.60,296.80 101.70,297.50 102.00,298.00 102.50,298.30 103.20,298.40"/>
    </edge>
    <edge id=":J19_0" function="internal">
        <lane id=":J19_0_0" index="0" speed="6.51" length="9.03" shape="698.40,307.20 698.05,304.75 697.00,303.00 695.25,301.95 692.80,301.60"/>
    </edge>
    <edge id=":J19_1" function="internal">
        <lane id=":J19_1_0" index="0" speed="13.89" length="14.40" shape="698.40,307.20 698.40,292.80"/>
    </edge>
    <edge id=":J19_2" function="internal">
        <lane id=":J19_2_0" index="0" speed="6.51" length="9.03" shape="692.80,298.40 695.25,298.05 697.00,297.00 698.05,295.25 698.40,292.80"/>
    </edge>
    <edge id=":J2_0" function="internal">
        <lane id=":J2_0_0" index="0" speed="6.51" length="9.03" shape="698.40,107.20 698.05,104.75 697.00,103.00 695.25,101.95 692.80,101.60"/>
    </edge>
    <edge id=":J2_1" function="internal">
        <lane id=":J2_1_0" index="0" speed="13.89" length="14.40" shape="698.40,107.20 698.40,92.80"/>
    </edge>
    <edge id=":J2_2" function="internal">
        <lane id=":J2_2_0" index="0" speed="13.89" length="14.40" shape="701.60,92.80 701.60,107.20"/>
    </edge>
    <edge id=":J2_3" function="internal">
        <lane id=":J2_3_0" index="0" speed="8.00" length="4.07" shape="701.60,92.80 701.05,96.65 700.96,96.80"/>
    </edge>
    <edge id=":J2_6" function="internal">
        <lane id=":J2_6_0" index="0" speed="8.00" length="10.13" shape="700.96,96.80 699.40,99.40 696.65,101.05 692.80,101.60"/>
    </edge>
    <edge id=":J2_4" function="internal">
        <lane id=":J2_4_0" index="0" speed="6.51" length="9.03" shape="692.80,98.40 695.25,98.05 697.00,97.00 698.05,95.25 698.40,92.80"/>
    </edge>
    <edge id=":J2_5" function="internal">
        <lane id=":J2_5_0" index="0" speed="8.00" length="14.19" shape="692.80,98.40 696.65,98.95 699.40,100.60 701.05,103.35 701.60,107.20"/>
    </edge>
    <edge id=":J21_0" function="internal">
        <lane id=":J21_0_0" index="0" speed="6.08" length="7.74" shape="-301.60,-1096.80 -301.30,-1098.90 -300.40,-1100.40 -298.90,-1101.30 -296.80,-1101.60"/>
    </edge>
    <edge id=":J21_1" function="internal">
        <lane id=":J21_1_0" index="0" speed="3.90" length="2.58" shape="-296.80,-1098.40 -297.50,-1098.30 -298.00,-1098.00 -298.30,-1097.50 -298.40,-1096.80"/>
    </edge>
    <edge id=":J22_0" function="internal">
        <lane id=":J22_0_0" index="0" speed="6.08" length="7.74" shape="1.60,-1103.20 1.30,-1101.10 0.40,-1099.60 -1.10,-1098.70 -3.20,-1098.40"/>
    </edge>
    <edge id=":J22_1" function="internal">
        <lane id=":J22_1_0" index="0" speed="3.90" length="2.58" shape="-3.20,-1101.60 -2.50,-1101.70 -2.00,-1102.00 -1.70,-1102.50 -1.60,-1103.20"/>
    </edge>
    <edge id=":J27_0" function="internal">
        <lane id=":J27_0_0" index="0" speed="6.08" length="7.74" shape="-1201.60,-396.80 -1201.30,-398.90 -1200.40,-400.40 -1198.90,-401.30 -1196.80,-401.60"/>
    </edge>
    <edge id=":J27_1" function="internal">
        <lane id=":J27_1_0" index="0" speed="3.90" length="2.58" shape="-1196.80,-398.40 -1197.50,-398.30 -1198.00,-398.00 -1198.30,-397.50 -1198.40,-396.80"/>
    </edge>
    <edge id=":J29_0" function="internal">
        <lane id=":J29_0_0" index="0" speed="6.08" length="7.74" shape="-1198.40,-3.20 -1198.70,-1.10 -1199.60,0.40 -1201.10,1.30 -1203.20,1.60"/>
    </edge>
    <edge id=":J29_1" function="internal">
        <lane id=":J29_1_0" index="0" speed="3.90" length="2.58" shape="-1203.20,-1.60 -1202.50,-1.70 -1202.00,-2.00 -1201.70,-2.50 -1201.60,-3.20"/>
    </edge>
    <edge id=":J3_0" function="internal">
        <lane id=":J3_0_0" index="0" speed="6.51" length="9.03" shape="698.40,-492.80 698.05,-495.25 697.00,-497.00 695.25,-498.05 692.80,-498.40"/>
    </edge>
    <edge id=":J3_1" function="internal">
        <lane id=":J3_1_0" index="0" speed="13.89" length="14.40" shape="698.40,-492.80 698.40,-507.20"/>
    </edge>
    <edge id=":J3_2" function="internal">
        <lane id=":J3_2_0" index="0" speed="13.89" length="14.40" shape="701.60,-507.20 701.60,-492.80"/>
    </edge>
    <edge id=":J3_3" function="internal">
        <lane id=":J3_3_0" index="0" speed="8.00" length="4.07" shape="701.60,-507.20 701.05,-503.35 700.96,-503.20"/>
    </edge>
    <edge id=":J3_6" function="internal">
        <lane id=":J3_6_0" index="0" speed="8.00" length="10.13" shape="700.96,-503.20 699.40,-500.60 696.65,-498.95 692.80,-498.40"/>
    </edge>
    <edge id=":J3_4" function="internal">
        <lane id=":J3_4_0" index="0" speed="6.51" length="9.03" shape="692.80,-501.60 695.25,-501.95 697.00,-503.00 698.05,-504.75 698.40,-507.20"/>
    </edge>
    <edge id=":J3_5" function="internal">
        <lane id=":J3_5_0" index="0" speed="8.00" length="14.19" shape="692.80,-501.60 696.65,-501.05 699.40,-499.40 701.05,-496.65 701.60,-492.80"/>
    </edge>
    <edge id=":J30_0" function="internal">
        <lane id=":J30_0_0" index="0" speed="6.08" length="7.77" shape="-1401.58,3.23 -1401.29,1.11 -1400.40,-0.39 -1398.89,-1.30 -1396.78,-1.60"/>
    </edge>
    <edge id=":J30_1" function="internal">
        <lane id=":J30_1_0" index="0" speed="3.90" length="2.59" shape="-1396.78,1.60 -1397.49,1.70 -1397.99,2.00 -1398.29,2.50 -1398.38,3.21"/>
    </edge>
    <edge id=":J32_0" function="internal">
        <lane id=":J32_0_0" index="0" speed="10.77" length="10.63" shape="407.20,-198.40 404.13,-198.19 401.47,-197.58 399.22,-196.55 397.37,-195.10"/>
    </edge>
    <edge id=":J32_1" function="internal">
        <lane id=":J32_1_0" index="0" speed="8.00" length="3.37" shape="407.20,-198.40 403.87,-198.88"/>
    </edge>
    <edge id=":J32_6" function="internal">
        <lane id=":J32_6_0" index="0" speed="8.00" length="10.83" shape="403.87,-198.88 403.35,-198.95 400.60,-200.60 398.95,-203.35 398.40,-207.20"/>
    </edge>
    <edge id=":J32_2" function="internal">
        <lane id=":J32_2_0" index="0" speed="6.51" length="9.03" shape="401.60,-207.20 401.95,-204.75 403.00,-203.00 404.75,-201.95 407.20,-201.60"/>
    </edge>
    <edge id=":J32_3" function="internal">
        <lane id=":J32_3_0" index="0" speed="11.94" length="13.14" shape="401.60,-207.20 401.34,-203.50 400.54,-200.24 399.22,-197.45 397.37,-195.10"/>
    </edge>
    <edge id=":J32_4" function="internal">
        <lane id=":J32_4_0" index="0" speed="10.77" length="10.63" shape="395.10,-197.37 396.55,-199.22 397.58,-201.47 398.19,-204.13 398.40,-207.20"/>
    </edge>
    <edge id=":J32_5" function="internal">
        <lane id=":J32_5_0" index="0" speed="11.94" length="13.14" shape="395.10,-197.37 397.45,-199.22 400.24,-200.54 403.50,-201.34 407.20,-201.60"/>
    </edge>
    <edge id=":J4_0" function="internal">
        <lane id=":J4_0_0" index="0" speed="13.89" length="14.40" shape="98.40,-492.80 98.40,-507.20"/>
    </edge>
    <edge id=":J4_1" function="internal">
        <lane id=":J4_1_0" index="0" speed="8.00" length="4.07" shape="98.40,-492.80 98.95,-496.65 99.04,-496.80"/>
    </edge>
    <edge id=":J4_6" function="internal">
        <lane id=":J4_6_0" index="0" speed="8.00" length="10.13" shape="99.04,-496.80 100.60,-499.40 103.35,-501.05 107.20,-501.60"/>
    </edge>
    <edge id=":J4_2" function="internal">
        <lane id=":J4_2_0" index="0" speed="6.51" length="9.03" shape="107.20,-498.40 104.75,-498.05 103.00,-497.00 101.95,-495.25 101.60,-492.80"/>
    </edge>
    <edge id=":J4_3" function="internal">
        <lane id=":J4_3_0" index="0" speed="8.00" length="14.19" shape="107.20,-498.40 103.35,-498.95 100.60,-500.60 98.95,-503.35 98.40,-507.20"/>
    </edge>
    <edge id=":J4_4" function="internal">
        <lane id=":J4_4_0" index="0" speed="6.51" length="9.03" shape="101.60,-507.20 101.95,-504.75 103.00,-503.00 104.75,-501.95 107.20,-501.60"/>
    </edge>
    <edge id=":J4_5" function="internal">
        <lane id=":J4_5_0" index="0" speed="13.89" length="14.40" shape="101.60,-507.20 101.60,-492.80"/>
    </edge>
    <edge id=":J5_0" function="internal">
        <lane id=":J5_0_0" index="0" speed="13.89" length="14.40" shape="98.40,-792.80 98.40,-807.20"/>
    </edge>
    <edge id=":J5_1" function="internal">
        <lane id=":J5_1_0" index="0" speed="8.00" length="4.07" shape="98.40,-792.80 98.95,-796.65 99.04,-796.80"/>
    </edge>
    <edge id=":J5_6" function="internal">
        <lane id=":J5_6_0" index="0" speed="8.00" length="10.13" shape="99.04,-796.80 100.60,-799.40 103.35,-801.05 107.20,-801.60"/>
    </edge>
    <edge id=":J5_2" function="internal">
        <lane id=":J5_2_0" index="0" speed="6.51" length="9.03" shape="107.20,-798.40 104.75,-798.05 103.00,-797.00 101.95,-795.25 101.60,-792.80"/>
    </edge>
    <edge id=":J5_3" function="internal">
        <lane id=":J5_3_0" index="0" speed="8.00" length="14.19" shape="107.20,-798.40 103.35,-798.95 100.60,-800.60 98.95,-803.35 98.40,-807.20"/>
    </edge>
    <edge id=":J5_4" function="internal">
        <lane id=":J5_4_0" index="0" speed="6.51" length="9.03" shape="101.60,-807.20 101.95,-804.75 103.00,-803.00 104.75,-801.95 107.20,-801.60"/>
    </edge>
    <edge id=":J5_5" function="internal">
        <lane id=":J5_5_0" index="0" speed="13.89" length="14.40" shape="101.60,-807.20 101.60,-792.80"/>
    </edge>
    <edge id=":J6_0" function="internal">
        <lane id=":J6_0_0" index="0" speed="6.51" length="9.03" shape="698.40,-792.80 698.05,-795.25 697.00,-797.00 695.25,-798.05 692.80,-798.40"/>
    </edge>
    <edge id=":J6_1" function="internal">
        <lane id=":J6_1_0" index="0" speed="13.89" length="14.40" shape="698.40,-792.80 698.40,-807.20"/>
    </edge>
    <edge id=":J6_2" function="internal">
        <lane id=":J6_2_0" index="0" speed="13.89" length="14.40" shape="701.60,-807.20 701.60,-792.80"/>
    </edge>
    <edge id=":J6_3" function="internal">
        <lane id=":J6_3_0" index="0" speed="8.00" length="4.07" shape="701.60,-807.20 701.05,-803.35 700.96,-803.20"/>
    </edge>
    <edge id=":J6_6" function="internal">
        <lane id=":J6_6_0" index="0" speed="8.00" length="10.13" shape="700.96,-803.20 699.40,-800.60 696.65,-798.95 692.80,-798.40"/>
    </edge>
    <edge id=":J6_4" function="internal">
        <lane id=":J6_4_0" index="0" speed="6.51" length="9.03" shape="692.80,-801.60 695.25,-801.95 697.00,-803.00 698.05,-804.75 698.40,-807.20"/>
    </edge>
    <edge id=":J6_5" function="internal">
        <lane id=":J6_5_0" index="0" speed="8.00" length="14.19" shape="692.80,-801.60 696.65,-801.05 699.40,-799.40 701.05,-796.65 701.60,-792.80"/>
    </edge>
    <edge id=":J7_0" function="internal">
        <lane id=":J7_0_0" index="0" speed="13.89" length="11.81" shape="-692.80,101.60 -696.07,101.67 -698.71,102.01 -701.20,102.86 -704.05,104.42"/>
    </edge>
    <edge id=":J7_1" function="internal">
        <lane id=":J7_1_0" index="0" speed="8.00" length="3.74" shape="-692.80,101.60 -696.50,101.07"/>
    </edge>
    <edge id=":J7_6" function="internal">
        <lane id=":J7_6_0" index="0" speed="8.00" length="10.45" shape="-696.50,101.07 -696.65,101.05 -699.40,99.40 -701.05,96.65 -701.60,92.80"/>
    </edge>
    <edge id=":J7_2" function="internal">
        <lane id=":J7_2_0" index="0" speed="6.51" length="9.03" shape="-698.40,92.80 -698.05,95.25 -697.00,97.00 -695.25,98.05 -692.80,98.40"/>
    </edge>
    <edge id=":J7_3" function="internal">
        <lane id=":J7_3_0" index="0" speed="10.17" length="13.50" shape="-698.40,92.80 -698.75,96.56 -699.81,99.75 -701.58,102.37 -704.05,104.42"/>
    </edge>
    <edge id=":J7_4" function="internal">
        <lane id=":J7_4_0" index="0" speed="8.92" length="10.26" shape="-705.74,101.70 -703.93,100.18 -702.64,98.18 -701.86,95.72 -701.60,92.80"/>
    </edge>
    <edge id=":J7_5" function="internal">
        <lane id=":J7_5_0" index="0" speed="13.89" length="13.55" shape="-705.74,101.70 -702.64,100.07 -699.56,99.06 -696.34,98.54 -692.80,98.40"/>
    </edge>
    <edge id=":J8_0" function="internal">
        <lane id=":J8_0_0" index="0" speed="13.89" length="14.40" shape="-701.60,-192.80 -701.60,-207.20"/>
    </edge>
    <edge id=":J8_1" function="internal">
        <lane id=":J8_1_0" index="0" speed="8.00" length="4.07" shape="-701.60,-192.80 -701.05,-196.65 -700.96,-196.80"/>
    </edge>
    <edge id=":J8_6" function="internal">
        <lane id=":J8_6_0" index="0" speed="8.00" length="10.13" shape="-700.96,-196.80 -699.40,-199.40 -696.65,-201.05 -692.80,-201.60"/>
    </edge>
    <edge id=":J8_2" function="internal">
        <lane id=":J8_2_0" index="0" speed="6.51" length="9.03" shape="-692.80,-198.40 -695.25,-198.05 -697.00,-197.00 -698.05,-195.25 -698.40,-192.80"/>
    </edge>
    <edge id=":J8_3" function="internal">
        <lane id=":J8_3_0" index="0" speed="8.00" length="14.19" shape="-692.80,-198.40 -696.65,-198.95 -699.40,-200.60 -701.05,-203.35 -701.60,-207.20"/>
    </edge>
    <edge id=":J8_4" function="internal">
        <lane id=":J8_4_0" index="0" speed="6.51" length="9.03" shape="-698.40,-207.20 -698.05,-204.75 -697.00,-203.00 -695.25,-201.95 -692.80,-201.60"/>
    </edge>
    <edge id=":J8_5" function="internal">
        <lane id=":J8_5_0" index="0" speed="13.89" length="14.40" shape="-698.40,-207.20 -698.40,-192.80"/>
    </edge>

    <edge id="-E0" from="J2" to="J1" priority="-1">
        <lane id="-E0_0" index="0" speed="13.89" length="581.07" shape="692.80,101.60 111.73,101.60"/>
    </edge>
    <edge id="-E1" from="J2" to="J3" priority="-1">
        <lane id="-E1_0" index="0" speed="13.89" length="585.60" shape="698.40,92.80 698.40,-492.80"/>
    </edge>
    <edge id="-E10" from="J10" to="J8" priority="-1">
        <lane id="-E10_0" index="0" speed="13.89" length="385.60" shape="-698.40,-592.80 -698.40,-207.20"/>
    </edge>
    <edge id="-E11" from="J10" to="J11" priority="-1">
        <lane id="-E11_0" index="0" speed="13.89" length="792.80" shape="-692.80,-601.60 100.00,-601.60"/>
    </edge>
    <edge id="-E12" from="J12" to="J10" priority="-1">
        <lane id="-E12_0" index="0" speed="13.89" length="285.60" shape="-698.40,-892.80 -698.40,-607.20"/>
    </edge>
    <edge id="-E13" from="J13" to="J12" priority="-1">
        <lane id="-E13_0" index="0" speed="13.89" length="789.60" shape="96.80,-898.40 -692.80,-898.40"/>
    </edge>
    <edge id="-E14" from="J5" to="J13" priority="-1">
        <lane id="-E14_0" index="0" speed="13.89" length="89.60" shape="98.40,-807.20 98.40,-896.80"/>
    </edge>
    <edge id="-E15" from="J14" to="J7" priority="-1">
        <lane id="-E15_0" index="0" speed="13.89" length="922.47" shape="-1487.99,590.61 -705.74,101.70"/>
    </edge>
    <edge id="-E16" from="J15" to="J12" priority="-1">
        <lane id="-E16_0" index="0" speed="13.89" length="918.47" shape="-1486.30,-1393.32 -707.44,-906.54"/>
    </edge>
    <edge id="-E17" from="J14" to="J15" priority="-1">
        <lane id="-E17_0" index="0" speed="13.89" length="1980.45" shape="-1501.60,590.23 -1501.60,-1390.23"/>
    </edge>
    <edge id="-E18" from="J16" to="J15" priority="-1">
        <lane id="-E18_0" index="0" speed="13.89" length="2181.64" shape="696.80,-1398.40 -1484.84,-1398.40"/>
    </edge>
    <edge id="-E19" from="J6" to="J16" priority="-1">
        <lane id="-E19_0" index="0" speed="13.89" length="589.60" shape="698.40,-807.20 698.40,-1396.80"/>
    </edge>
    <edge id="-E2" from="J3" to="J4" priority="-1">
        <lane id="-E2_0" index="0" speed="13.89" length="585.60" shape="692.80,-498.40 107.20,-498.40"/>
    </edge>
    <edge id="-E20" from="J17" to="J14" priority="-1">
        <lane id="-E20_0" index="0" speed="13.89" length="2181.64" shape="696.80,601.60 -1484.84,601.60"/>
    </edge>
    <edge id="-E22" from="J18" to="J1" priority="-1">
        <lane id="-E22_0" index="0" speed="13.89" length="189.60" shape="98.40,296.80 98.40,107.20"/>
    </edge>
    <edge id="-E23" from="J19" to="J18" priority="-1">
        <lane id="-E23_0" index="0" speed="13.89" length="589.60" shape="692.80,301.60 103.20,301.60"/>
    </edge>
    <edge id="-E24" from="J21" to="J20" priority="-1">