<?xml version="1.0" encoding="UTF-8"?>

<!-- generated on 2026-05-12T21:40:56.937453+09:00 by Eclipse SUMO netconvert 1.26.0
<netconvertConfiguration xmlns:xsi="http://www.w3.org/2001/XMLSchema-instance" xsi:noNamespaceSchemaLocation="http://sumo.dlr.de/xsd/netconvertConfiguration.xsd">

    <input>
        <osm-files value="map.osm"/>
    </input>

    <output>
        <output-file value="weihai_cbd.net.xml"/>
    </output>

    <projection>
        <proj.utm value="true"/>
    </projection>

</netconvertConfiguration>
-->

<net version="1.20" junctionCornerDetail="5" limitTurnSpeed="5.50" xmlns:xsi="http://www.w3.org/2001/XMLSchema-instance" xsi:noNamespaceSchemaLocation="http://sumo.dlr.de/xsd/net_file.xsd">

    <location netOffset="-417223.84,-4148994.94" convBoundary="0.00,0.00,6011.68,3728.00" origBoundary="122.063465,36.955977,126.843239,37.518126" projParameter="+proj=utm +zone=51 +ellps=WGS84 +datum=WGS84 +units=m +no_defs"/>

    <type id="highway.footway" priority="1" numLanes="1" speed="2.78" allow="pedestrian" oneway="1" width="2.00"/>
    <type id="highway.path" priority="1" numLanes="1" speed="5.56" allow="pedestrian bicycle" oneway="0" width="2.00"/>
    <type id="highway.pedestrian" priority="1" numLanes="1" speed="2.78" allow="pedestrian" oneway="1" width="2.00"/>
    <type id="highway.primary" priority="12" numLanes="2" speed="27.78" disallow="tram rail_urban rail rail_electric rail_fast ship container cable_car subway aircraft wheelchair scooter drone" oneway="0"/>
    <type id="highway.primary_link" priority="7" numLanes="1" speed="22.22" disallow="tram rail_urban rail rail_electric rail_fast ship container cable_car subway aircraft wheelchair scooter drone" oneway="0"/>
    <type id="highway.residential" priority="3" numLanes="1" speed="13.89" disallow="tram rail_urban rail rail_electric rail_fast ship container cable_car subway aircraft wheelchair scooter drone" oneway="0"/>
    <type id="highway.secondary" priority="11" numLanes="1" speed="27.78" disallow="tram rail_urban rail rail_electric rail_fast ship container cable_car subway aircraft wheelchair scooter drone" oneway="0"/>
    <type id="highway.secondary_link" priority="6" numLanes="1" speed="22.22" disallow="tram rail_urban rail rail_electric rail_fast ship container cable_car subway aircraft wheelchair scooter drone" oneway="0"/>
    <type id="highway.service" priority="1" numLanes="1" speed="5.56" allow="pedestrian delivery bicycle" oneway="0"/>
    <type id="highway.steps" priority="1" numLanes="1" speed="1.39" allow="pedestrian" oneway="1" width="2.00"/>
    <type id="highway.tertiary" priority="10" numLanes="1" speed="22.22" disallow="tram rail_urban rail rail_electric rail_fast ship container cable_car subway aircraft wheelchair scooter drone" oneway="0"/>
    <type id="highway.unclassified" priority="4" numLanes="1" speed="13.89" disallow="tram rail_urban rail rail_electric rail_fast ship container cable_car subway aircraft wheelchair scooter drone" oneway="0"/>

    <edge id=":11235448174_0" function="internal">
        <lane id=":11235448174_0_0" index="0" disallow="tram rail_urban rail rail_electric rail_fast ship container cable_car subway aircraft wheelchair scooter drone" speed="27.78" length="0.23" shape="4259.73,3649.70 4259.68,3649.48"/>
    </edge>
    <edge id=":11235448179_0" function="internal">
        <lane id=":11235448179_0_0" index="0" disallow="tram rail_urban rail rail_electric rail_fast ship container cable_car subway aircraft wheelchair scooter drone" speed="27.78" length="0.30" shape="4281.23,2920.48 4281.24,2920.18"/>
    </edge>
    <edge id=":11235448184_0" function="internal">
        <lane id=":11235448184_0_0" index="0" disallow="tram rail_urban rail rail_electric rail_fast ship container cable_car subway aircraft wheelchair scooter drone" speed="22.22" length="10.23" shape="4304.07,2554.94 4293.84,2554.72"/>
    </edge>
    <edge id=":11235448184_1" function="internal">
        <lane id=":11235448184_1_0" index="0" disallow="tram rail_urban rail rail_electric rail_fast ship container cable_car subway aircraft wheelchair scooter drone" speed="6.96" length="10.91" shape="4304.07,2554.94 4302.11,2554.38 4300.79,2552.71 4300.10,2549.93 4300.03,2546.04"/>
    </edge>
    <edge id=":11235448184_2" function="internal">
        <lane id=":11235448184_2_0" index="0" disallow="tram rail_urban rail rail_electric rail_fast ship container cable_car subway aircraft wheelchair scooter drone" speed="3.65" length="4.67" shape="4304.07,2554.94 4302.87,2554.13 4302.47,2553.33 4302.88,2552.53 4304.08,2551.74"/>
    </edge>
    <edge id=":11235448184_3" function="internal">
        <lane id=":11235448184_3_0" index="0" disallow="tram rail_urban rail rail_electric rail_fast ship container cable_car subway aircraft wheelchair scooter drone" speed="6.64" length="9.29" shape="4293.95,2551.52 4296.49,2551.26 4298.35,2550.25 4299.53,2548.52 4300.03,2546.04"/>
    </edge>
    <edge id=":11235448184_4" function="internal">
        <lane id=":11235448184_4_0" index="0" disallow="tram rail_urban rail rail_electric rail_fast ship container cable_car subway aircraft wheelchair scooter drone" speed="22.22" length="10.13" shape="4293.95,2551.52 4304.08,2551.74"/>
    </edge>
    <edge id=":11235448184_5" function="internal">
        <lane id=":11235448184_5_0" index="0" disallow="tram rail_urban rail rail_electric rail_fast ship container cable_car subway aircraft wheelchair scooter drone" speed="3.65" length="4.67" shape="4293.95,2551.52 4295.13,2552.36 4295.50,2553.18 4295.07,2553.96 4293.84,2554.72"/>
    </edge>
    <edge id=":11235448184_6" function="internal">
        <lane id=":11235448184_6_0" index="0" disallow="tram rail_urban rail rail_electric rail_fast ship container cable_car subway aircraft wheelchair scooter drone" speed="6.42" length="9.03" shape="4299.09,2560.56 4298.92,2558.08 4297.99,2556.28 4296.29,2555.16 4293.84,2554.72"/>
    </edge>
    <edge id=":11235448184_7" function="internal">
        <lane id=":11235448184_7_0" index="0" disallow="tram rail_urban rail rail_electric rail_fast ship container cable_car subway aircraft wheelchair scooter drone" speed="27.78" length="14.55" shape="4299.09,2560.56 4300.03,2546.04"/>
    </edge>
    <edge id=":11235448184_8" function="internal">
        <lane id=":11235448184_8_0" index="0" disallow="tram rail_urban rail rail_electric rail_fast ship container cable_car subway aircraft wheelchair scooter drone" speed="7.32" length="11.08" shape="4299.09,2560.56 4299.65,2556.70 4300.66,2553.94 4302.14,2552.28 4304.08,2551.74"/>
    </edge>
    <edge id=":11235448185_0" function="internal">
        <lane id=":11235448185_0_0" index="0" disallow="tram rail_urban rail rail_electric rail_fast ship container cable_car subway aircraft wheelchair scooter drone" speed="27.78" length="0.30" shape="4309.62,2377.36 4309.64,2377.06"/>
    </edge>
    <edge id=":11235448227_0" function="internal">
        <lane id=":11235448227_0_0" index="0" disallow="tram rail_urban rail rail_electric rail_fast ship container cable_car subway aircraft wheelchair scooter drone" speed="27.78" length="0.30" shape="4261.35,3657.10 4261.29,3656.80"/>
    </edge>
    <edge id=":11235448269_0" function="internal">
        <lane id=":11235448269_0_0" index="0" allow="pedestrian delivery bicycle" speed="5.07" length="5.05" shape="2486.58,1893.02 2486.09,1891.74 2485.30,1890.93 2484.21,1890.57 2482.81,1890.68"/>
    </edge>
    <edge id=":11235448269_1" function="internal">
        <lane id=":11235448269_1_0" index="0" disallow="tram rail_urban rail rail_electric rail_fast ship container cable_car subway aircraft wheelchair scooter drone" speed="27.78" length="9.43" shape="2486.58,1893.02 2484.47,1883.84"/>
        <lane id=":11235448269_1_1" index="1" disallow="tram rail_urban rail rail_electric rail_fast ship container cable_car subway aircraft wheelchair scooter drone" speed="27.78" length="9.43" shape="2489.70,1892.31 2487.58,1883.11"/>
    </edge>
    <edge id=":11235448269_3" function="internal">
        <lane id=":11235448269_3_0" index="0" allow="pedestrian delivery bicycle" speed="5.02" length="5.02" shape="2482.13,1887.55 2483.42,1887.07 2484.24,1886.29 2484.59,1885.22 2484.47,1883.84"/>
    </edge>
    <edge id=":11235448269_4" function="internal">
        <lane id=":11235448269_4_0" index="0" allow="pedestrian delivery bicycle" speed="3.65" length="4.67" shape="2482.13,1887.55 2483.47,1888.08 2484.03,1888.77 2483.82,1889.64 2482.81,1890.68"/>
    </edge>
    <edge id=":11235448283_0" function="internal">
        <lane id=":11235448283_0_0" index="0" disallow="tram rail_urban rail rail_electric rail_fast ship container cable_car subway aircraft wheelchair scooter drone" speed="27.78" length="17.24" shape="2472.40,1834.08 2467.70,1817.47"/>
        <lane id=":11235448283_0_1" index="1" disallow="tram rail_urban rail rail_electric rail_fast ship container cable_car subway aircraft wheelchair scooter drone" speed="27.78" length="17.24" shape="2475.47,1833.18 2470.79,1816.61"/>
    </edge>
    <edge id=":11235448283_2" function="internal">
        <lane id=":11235448283_2_0" index="0" disallow="tram rail_urban rail rail_electric rail_fast ship container cable_car subway aircraft wheelchair scooter drone" speed="5.61" length="6.61" shape="2475.47,1833.18 2474.96,1830.85 2474.95,1829.09 2475.46,1827.91 2476.46,1827.30"/>
        <lane id=":11235448283_2_1" index="1" disallow="tram rail_urban rail rail_electric rail_fast ship container cable_car subway aircraft wheelchair scooter drone" speed="4.46" length="3.79" shape="2475.47,1833.18 2475.35,1832.20 2475.60,1831.40 2476.24,1830.80 2477.25,1830.40"/>
    </edge>
    <edge id=":11235448283_4" function="internal">
        <lane id=":11235448283_4_0" index="0" disallow="tram rail_urban rail rail_electric rail_fast ship container cable_car subway aircraft wheelchair scooter drone" speed="6.33" length="8.72" shape="2463.59,1823.84 2465.92,1822.95 2467.38,1821.60 2467.97,1819.77 2467.70,1817.47"/>
    </edge>
    <edge id=":11235448283_5" function="internal">
        <lane id=":11235448283_5_0" index="0" disallow="tram rail_urban rail rail_electric rail_fast ship container cable_car subway aircraft wheelchair scooter drone" speed="27.78" length="11.70" shape="2463.59,1823.84 2474.88,1821.10"/>
        <lane id=":11235448283_5_1" index="1" disallow="tram rail_urban rail rail_electric rail_fast ship container cable_car subway aircraft wheelchair scooter drone" speed="27.78" length="11.70" shape="2464.33,1826.96 2475.67,1824.20"/>
        <lane id=":11235448283_5_2" index="2" disallow="tram rail_urban rail rail_electric rail_fast ship container cable_car subway aircraft wheelchair scooter drone" speed="27.78" length="11.70" shape="2465.07,1830.07 2476.46,1827.30"/>
        <lane id=":11235448283_5_3" index="3" disallow="tram rail_urban rail rail_electric rail_fast ship container cable_car subway aircraft wheelchair scooter drone" speed="27.78" length="11.70" shape="2465.80,1833.18 2477.25,1830.40"/>
    </edge>
    <edge id=":11235448284_0" function="internal">
        <lane id=":11235448284_0_0" index="0" disallow="tram rail_urban rail rail_electric rail_fast ship container cable_car subway aircraft wheelchair scooter drone" speed="6.33" length="8.59" shape="2476.64,1850.48 2475.80,1848.49 2474.40,1847.27 2472.43,1846.82 2469.90,1847.13"/>
        <lane id=":11235448284_0_1" index="1" disallow="tram rail_urban rail rail_electric rail_fast ship container cable_car subway aircraft wheelchair scooter drone" speed="7.86" length="13.79" shape="2479.75,1849.75 2478.40,1846.43 2476.18,1844.37 2473.09,1843.57 2469.13,1844.03"/>
        <lane id=":11235448284_0_2" index="2" disallow="tram rail_urban rail rail_electric rail_fast ship container cable_car subway aircraft wheelchair scooter drone" speed="8.53" length="16.43" shape="2479.75,1849.75 2478.08,1845.07 2475.62,1842.04 2472.38,1840.65 2468.36,1840.92"/>
    </edge>
    <edge id=":11235448284_3" function="internal">
        <lane id=":11235448284_3_0" index="0" disallow="tram rail_urban rail rail_electric rail_fast ship container cable_car subway aircraft wheelchair scooter drone" speed="27.78" length="17.06" shape="2479.75,1849.75 2478.13,1844.97 2476.28,1841.97 2474.34,1838.98 2472.46,1834.27"/>
        <lane id=":11235448284_3_1" index="1" disallow="tram rail_urban rail rail_electric rail_fast ship container cable_car subway aircraft wheelchair scooter drone" speed="27.78" length="17.06" shape="2479.75,1849.75 2475.53,1833.37"/>
    </edge>
    <edge id=":11235448284_5" function="internal">
        <lane id=":11235448284_5_0" index="0" disallow="tram rail_urban rail rail_electric rail_fast ship container cable_car subway aircraft wheelchair scooter drone" speed="27.78" length="11.53" shape="2481.16,1844.27 2469.90,1847.13"/>
        <lane id=":11235448284_5_1" index="1" disallow="tram rail_urban rail rail_electric rail_fast ship container cable_car subway aircraft wheelchair scooter drone" speed="27.78" length="11.53" shape="2480.33,1841.18 2469.13,1844.03"/>
        <lane id=":11235448284_5_2" index="2" disallow="tram rail_urban rail rail_electric rail_fast ship container cable_car subway aircraft wheelchair scooter drone" speed="27.78" length="11.53" shape="2479.51,1838.09 2468.36,1840.92"/>
        <lane id=":11235448284_5_3" index="3" disallow="tram rail_urban rail rail_electric rail_fast ship container cable_car subway aircraft wheelchair scooter drone" speed="27.78" length="11.53" shape="2478.69,1835.00 2467.59,1837.81"/>
    </edge>
    <edge id=":11235448284_9" function="internal">
        <lane id=":11235448284_9_0" index="0" disallow="tram rail_urban rail rail_electric rail_fast ship container cable_car subway aircraft wheelchair scooter drone" speed="4.65" length="4.02" shape="2478.69,1835.00 2477.56,1835.14 2476.65,1834.92 2475.98,1834.33 2475.53,1833.37"/>
    </edge>
    <edge id=":11235448285_0" function="internal">
        <lane id=":11235448285_0_0" index="0" disallow="tram rail_urban rail rail_electric rail_fast ship container cable_car subway aircraft wheelchair scooter drone" speed="6.10" length="8.14" shape="2527.61,2076.17 2526.95,2074.29 2525.69,2073.11 2523.82,2072.65 2521.34,2072.89"/>
    </edge>
    <edge id=":11235448285_1" function="internal">
        <lane id=":11235448285_1_0" index="0" disallow="tram rail_urban rail rail_electric rail_fast ship container cable_car subway aircraft wheelchair scooter drone" speed="27.78" length="13.09" shape="2527.61,2076.17 2525.09,2063.45"/>
        <lane id=":11235448285_1_1" index="1" disallow="tram rail_urban rail rail_electric rail_fast ship container cable_car subway aircraft wheelchair scooter drone" speed="27.78" length="13.09" shape="2530.77,2075.67 2528.20,2062.72"/>
    </edge>
    <edge id=":11235448285_3" function="internal">
        <lane id=":11235448285_3_0" index="0" disallow="tram rail_urban rail rail_electric rail_fast ship container cable_car subway aircraft wheelchair scooter drone" speed="6.63" length="9.02" shape="2530.77,2075.67 2530.39,2072.22 2530.48,2069.68 2531.05,2068.04 2532.09,2067.31"/>
    </edge>
    <edge id=":11235448285_4" function="internal">
        <lane id=":11235448285_4_0" index="0" disallow="tram rail_urban rail rail_electric rail_fast ship container cable_car subway aircraft wheelchair scooter drone" speed="13.89" length="11.68" shape="2532.76,2070.44 2521.34,2072.89"/>
    </edge>
    <edge id=":11235448285_5" function="internal">
        <lane id=":11235448285_5_0" index="0" disallow="tram rail_urban rail rail_electric rail_fast ship container cable_car subway aircraft wheelchair scooter drone" speed="6.72" length="1.41" shape="2532.76,2070.44 2531.50,2070.17 2531.42,2070.08"/>
    </edge>
    <edge id=":11235448285_6" function="internal">
        <lane id=":11235448285_6_0" index="0" disallow="tram rail_urban rail rail_electric rail_fast ship container cable_car subway aircraft wheelchair scooter drone" speed="3.65" length="1.44" shape="2532.76,2070.44 2531.42,2069.91"/>
    </edge>
    <edge id=":11235448285_10" function="internal">
        <lane id=":11235448285_10_0" index="0" disallow="tram rail_urban rail rail_electric rail_fast ship container cable_car subway aircraft wheelchair scooter drone" speed="6.72" length="8.14" shape="2531.42,2070.08 2530.32,2068.79 2529.22,2066.31 2528.20,2062.72"/>
    </edge>
    <edge id=":11235448285_11" function="internal">
        <lane id=":11235448285_11_0" index="0" disallow="tram rail_urban rail rail_electric rail_fast ship container cable_car subway aircraft wheelchair scooter drone" speed="3.65" length="3.23" shape="2531.42,2069.91 2530.86,2069.21 2531.08,2068.35 2532.09,2067.31"/>
    </edge>
    <edge id=":11235448285_7" function="internal">
        <lane id=":11235448285_7_0" index="0" disallow="tram rail_urban rail rail_electric rail_fast ship container cable_car subway aircraft wheelchair scooter drone" speed="6.39" length="8.82" shape="2520.67,2069.76 2523.05,2068.91 2524.58,2067.58 2525.26,2065.76 2525.09,2063.45"/>
    </edge>
    <edge id=":11235448285_8" function="internal">
        <lane id=":11235448285_8_0" index="0" disallow="tram rail_urban rail rail_electric rail_fast ship container cable_car subway aircraft wheelchair scooter drone" speed="13.89" length="11.68" shape="2520.67,2069.76 2532.09,2067.31"/>
    </edge>
    <edge id=":11235448285_9" function="internal">
        <lane id=":11235448285_9_0" index="0" disallow="tram rail_urban rail rail_electric rail_fast ship container cable_car subway aircraft wheelchair scooter drone" speed="3.65" length="1.44" shape="2520.67,2069.76 2522.01,2070.29"/>
    </edge>
    <edge id=":11235448285_12" function="internal">
        <lane id=":11235448285_12_0" index="0" disallow="tram rail_urban rail rail_electric rail_fast ship container cable_car subway aircraft wheelchair scooter drone" speed="3.65" length="3.23" shape="2522.01,2070.29 2522.57,2070.99 2522.35,2071.85 2521.34,2072.89"/>
    </edge>
    <edge id=":11235448287_0" function="internal">
        <lane id=":11235448287_0_0" index="0" disallow="tram rail_urban rail rail_electric rail_fast ship container cable_car subway aircraft wheelchair scooter drone" speed="6.51" length="9.03" shape="2538.92,2181.02 2538.32,2178.62 2537.10,2176.98 2535.25,2176.12 2532.78,2176.02"/>
    </edge>
    <edge id=":11235448287_1" function="internal">
        <lane id=":11235448287_1_0" index="0" disallow="tram rail_urban rail rail_electric rail_fast ship container cable_car subway aircraft wheelchair scooter drone" speed="27.78" length="14.38" shape="2538.92,2181.02 2537.51,2166.70"/>
        <lane id=":11235448287_1_1" index="1" disallow="tram rail_urban rail rail_electric rail_fast ship container cable_car subway aircraft wheelchair scooter drone" speed="27.78" length="14.38" shape="2542.10,2180.69 2540.70,2166.40"/>
    </edge>
    <edge id=":11235448287_3" function="internal">
        <lane id=":11235448287_3_0" index="0" disallow="tram rail_urban rail rail_electric rail_fast ship container cable_car subway aircraft wheelchair scooter drone" speed="6.53" length="9.06" shape="2532.45,2172.84 2534.86,2172.24 2536.51,2171.01 2537.39,2169.17 2537.51,2166.70"/>
    </edge>
    <edge id=":11235448287_4" function="internal">
        <lane id=":11235448287_4_0" index="0" disallow="tram rail_urban rail rail_electric rail_fast ship container cable_car subway aircraft wheelchair scooter drone" speed="3.65" length="4.67" shape="2532.45,2172.84 2533.73,2173.51 2534.21,2174.26 2533.89,2175.10 2532.78,2176.02"/>
    </edge>
    <edge id=":11235448288_0" function="internal">
        <lane id=":11235448288_0_0" index="0" disallow="tram rail_urban rail rail_electric rail_fast ship container cable_car subway aircraft wheelchair scooter drone" speed="27.78" length="5.02" shape="2549.94,2288.64 2549.41,2283.64"/>
        <lane id=":11235448288_0_1" index="1" disallow="tram rail_urban rail rail_electric rail_fast ship container cable_car subway aircraft wheelchair scooter drone" speed="27.78" length="5.02" shape="2553.13,2288.30 2552.60,2283.31"/>
    </edge>
    <edge id=":11235448289_0" function="internal">
        <lane id=":11235448289_0_0" index="0" disallow="tram rail_urban rail rail_electric rail_fast ship container cable_car subway aircraft wheelchair scooter drone" speed="6.18" length="9.20" shape="2560.56,2385.03 2559.91,2382.41 2558.66,2380.78 2556.80,2380.14 2554.34,2380.50"/>
    </edge>
    <edge id=":11235448289_1" function="internal">
        <lane id=":11235448289_1_0" index="0" disallow="tram rail_urban rail rail_electric rail_fast ship container cable_car subway aircraft wheelchair scooter drone" speed="27.78" length="14.40" shape="2560.56,2385.03 2558.96,2370.71"/>
        <lane id=":11235448289_1_1" index="1" disallow="tram rail_urban rail rail_electric rail_fast ship container cable_car subway aircraft wheelchair scooter drone" speed="27.78" length="14.40" shape="2563.74,2384.67 2562.15,2370.36"/>
    </edge>
    <edge id=":11235448289_3" function="internal">
        <lane id=":11235448289_3_0" index="0" disallow="tram rail_urban rail rail_electric rail_fast ship container cable_car subway aircraft wheelchair scooter drone" speed="7.05" length="9.21" shape="2553.78,2377.32 2556.25,2376.25 2557.93,2374.79 2558.84,2372.94 2558.96,2370.71"/>
    </edge>
    <edge id=":11235448289_4" function="internal">
        <lane id=":11235448289_4_0" index="0" disallow="tram rail_urban rail rail_electric rail_fast ship container cable_car subway aircraft wheelchair scooter drone" speed="3.66" length="4.71" shape="2553.78,2377.32 2555.11,2377.90 2555.65,2378.63 2555.39,2379.49 2554.34,2380.50"/>
    </edge>
    <edge id=":11235448291_0" function="internal">
        <lane id=":11235448291_0_0" index="0" disallow="tram rail_urban rail rail_electric rail_fast ship container cable_car subway aircraft wheelchair scooter drone" speed="27.78" length="0.23" shape="2600.19,2629.47 2600.21,2629.64"/>
        <lane id=":11235448291_0_1" index="1" disallow="tram rail_urban rail rail_electric rail_fast ship container cable_car subway aircraft wheelchair scooter drone" speed="27.78" length="0.23" shape="2597.01,2629.84 2597.05,2630.12"/>
    </edge>
    <edge id=":11235448292_0" function="internal">
        <lane id=":11235448292_0_0" index="0" disallow="tram rail_urban rail rail_electric rail_fast ship container cable_car subway aircraft wheelchair scooter drone" speed="6.76" length="9.47" shape="2416.97,1599.52 2415.97,1597.12 2414.45,1595.58 2412.41,1594.89 2409.86,1595.05"/>
    </edge>
    <edge id=":11235448292_1" function="internal">
        <lane id=":11235448292_1_0" index="0" disallow="tram rail_urban rail rail_electric rail_fast ship container cable_car subway aircraft wheelchair scooter drone" speed="27.78" length="14.72" shape="2416.97,1599.52 2415.83,1595.30 2415.07,1592.40 2414.45,1589.48 2413.73,1585.17"/>
        <lane id=":11235448292_1_1" index="1" disallow="tram rail_urban rail rail_electric rail_fast ship container cable_car subway aircraft wheelchair scooter drone" speed="27.78" length="14.72" shape="2420.06,1598.71 2418.93,1594.49 2418.18,1591.59 2417.56,1588.66 2416.84,1584.36"/>
    </edge>
    <edge id=":11235448292_3" function="internal">
        <lane id=":11235448292_3_0" index="0" disallow="tram rail_urban rail rail_electric rail_fast ship container cable_car subway aircraft wheelchair scooter drone" speed="6.89" length="10.64" shape="2420.06,1598.71 2419.32,1594.89 2419.37,1592.05 2420.21,1590.17 2421.84,1589.26"/>
    </edge>
    <edge id=":11235448292_4" function="internal">
        <lane id=":11235448292_4_0" index="0" disallow="tram rail_urban rail rail_electric rail_fast ship container cable_car subway aircraft wheelchair scooter drone" speed="13.89" length="12.90" shape="2422.49,1592.40 2409.86,1595.05"/>
    </edge>
    <edge id=":11235448292_5" function="internal">
        <lane id=":11235448292_5_0" index="0" disallow="tram rail_urban rail rail_electric rail_fast ship container cable_car subway aircraft wheelchair scooter drone" speed="6.97" length="10.92" shape="2422.49,1592.40 2420.54,1592.23 2418.95,1590.83 2417.72,1588.21 2416.84,1584.36"/>
    </edge>
    <edge id=":11235448292_6" function="internal">
        <lane id=":11235448292_6_0" index="0" disallow="tram rail_urban rail rail_electric rail_fast ship container cable_car subway aircraft wheelchair scooter drone" speed="3.65" length="4.67" shape="2422.49,1592.40 2421.15,1591.86 2420.60,1591.16 2420.83,1590.29 2421.84,1589.26"/>
    </edge>
    <edge id=":11235448292_7" function="internal">
        <lane id=":11235448292_7_0" index="0" disallow="tram rail_urban rail rail_electric rail_fast ship container cable_car subway aircraft wheelchair scooter drone" speed="6.67" length="9.16" shape="2409.21,1591.92 2411.51,1591.07 2413.04,1589.66 2413.77,1587.70 2413.73,1585.17"/>
    </edge>
    <edge id=":11235448292_8" function="internal">
        <lane id=":11235448292_8_0" index="0" disallow="tram rail_urban rail rail_electric rail_fast ship container cable_car subway aircraft wheelchair scooter drone" speed="13.89" length="12.91" shape="2409.21,1591.92 2421.84,1589.26"/>
    </edge>
    <edge id=":11235448292_9" function="internal">
        <lane id=":11235448292_9_0" index="0" disallow="tram rail_urban rail rail_electric rail_fast ship container cable_car subway aircraft wheelchair scooter drone" speed="3.65" length="4.67" shape="2409.21,1591.92 2410.54,1592.45 2411.10,1593.15 2410.87,1594.02 2409.86,1595.05"/>
    </edge>
    <edge id=":11479053007_0" function="internal">
        <lane id=":11479053007_0_0" index="0" allow="pedestrian delivery bicycle" speed="5.56" length="4.41" shape="5104.23,1927.54 5102.84,1931.72"/>
    </edge>
    <edge id=":11479053007_1" function="internal">
        <lane id=":11479053007_1_0" index="0" allow="pedestrian delivery bicycle" speed="3.65" length="1.44" shape="5104.23,1927.54 5103.09,1928.42"/>
    </edge>
    <edge id=":11479053007_4" function="internal">
        <lane id=":11479053007_4_0" index="0" allow="pedestrian delivery bicycle" speed="3.65" length="3.23" shape="5103.09,1928.42 5102.21,1928.55 5101.57,1927.92 5101.19,1926.53"/>
    </edge>
    <edge id=":11479053007_2" function="internal">
        <lane id=":11479053007_2_0" index="0" allow="pedestrian delivery bicycle" speed="5.56" length="4.40" shape="5099.80,1930.71 5101.19,1926.53"/>
    </edge>
    <edge id=":11479053007_3" function="internal">
        <lane id=":11479053007_3_0" index="0" allow="pedestrian delivery bicycle" speed="3.65" length="1.44" shape="5099.80,1930.71 5100.94,1929.82"/>
    </edge>
    <edge id=":11479053007_5" function="internal">
        <lane id=":11479053007_5_0" index="0" allow="pedestrian delivery bicycle" speed="3.65" length="3.23" shape="5100.94,1929.82 5101.83,1929.69 5102.46,1930.33 5102.84,1931.72"/>
    </edge>
    <edge id=":11479053008_0" function="internal">
        <lane id=":11479053008_0_0" index="0" allow="pedestrian delivery bicycle" speed="5.56" length="3.15" shape="5083.11,1896.70 5080.10,1895.75"/>
    </edge>
    <edge id=":11479053008_1" function="internal">
        <lane id=":11479053008_1_0" index="0" allow="pedestrian delivery bicycle" speed="3.65" length="1.44" shape="5083.11,1896.70 5082.20,1895.58"/>
    </edge>
    <edge id=":11479053008_4" function="internal">
        <lane id=":11479053008_4_0" index="0" allow="pedestrian delivery bicycle" speed="3.65" length="3.23" shape="5082.20,1895.58 5082.06,1894.69 5082.69,1894.05 5084.07,1893.65"/>
    </edge>
    <edge id=":11479053008_2" function="internal">
        <lane id=":11479053008_2_0" index="0" allow="pedestrian delivery bicycle" speed="5.56" length="3.15" shape="5081.07,1892.70 5084.07,1893.65"/>
    </edge>
    <edge id=":11479053008_3" function="internal">
        <lane id=":11479053008_3_0" index="0" allow="pedestrian delivery bicycle" speed="3.65" length="1.44" shape="5081.07,1892.70 5081.97,1893.83"/>
    </edge>
    <edge id=":11479053008_5" function="internal">
        <lane id=":11479053008_5_0" index="0" allow="pedestrian delivery bicycle" speed="3.65" length="3.23" shape="5081.97,1893.83 5082.11,1894.71 5081.49,1895.35 5080.10,1895.75"/>
    </edge>
    <edge id=":11479053009_0" function="internal">
        <lane id=":11479053009_0_0" index="0" allow="pedestrian delivery bicycle" speed="5.56" length="3.55" shape="5075.77,1917.49 5072.33,1916.61"/>
    </edge>
    <edge id=":11479053009_1" function="internal">
        <lane id=":11479053009_1_0" index="0" allow="pedestrian delivery bicycle" speed="3.65" length="1.44" shape="5075.77,1917.49 5074.81,1916.42"/>
    </edge>
    <edge id=":11479053009_4" function="internal">
        <lane id=":11479053009_4_0" index="0" allow="pedestrian delivery bicycle" speed="3.65" length="3.23" shape="5074.81,1916.42 5074.62,1915.55 5075.21,1914.87 5076.57,1914.40"/>
    </edge>
    <edge id=":11479053009_2" function="internal">
        <lane id=":11479053009_2_0" index="0" allow="pedestrian delivery bicycle" speed="5.56" length="3.56" shape="5073.12,1913.51 5076.57,1914.40"/>
    </edge>
    <edge id=":11479053009_3" function="internal">
        <lane id=":11479053009_3_0" index="0" allow="pedestrian delivery bicycle" speed="3.65" length="1.44" shape="5073.12,1913.51 5074.08,1914.58"/>
    </edge>
    <edge id=":11479053009_5" function="internal">
        <lane id=":11479053009_5_0" index="0" allow="pedestrian delivery bicycle" speed="3.65" length="3.23" shape="5074.08,1914.58 5074.27,1915.45 5073.69,1916.13 5072.33,1916.61"/>
    </edge>
    <edge id=":11479053010_0" function="internal">
        <lane id=":11479053010_0_0" index="0" allow="pedestrian delivery bicycle" speed="5.56" length="4.96" shape="5179.91,1687.47 5175.57,1685.07"/>
    </edge>
    <edge id=":11479053010_1" function="internal">