<?xml version="1.0" encoding="UTF-8"?>

<!-- generated on 2026-05-13T15:00:12.705814+09:00 by Eclipse SUMO netedit 1.26.0
-->

<additional xmlns:xsi="http://www.w3.org/2001/XMLSchema-instance" xsi:noNamespaceSchemaLocation="http://sumo.dlr.de/xsd/additional_file.xsd">
    <!-- Shapes -->
    <poly id="po_0" type="park" color="0,128,0" fill="1" layer="0.00" shape="-1502.101695,602.223729 -1502.101695,-1397.057627 -701.355932,-899.389831 -699.633898,99.389831 -1500.379661,598.779661"/>
</additional>
